/*---------------------------------------------------------------------------*\
| =========                 |                                                 |
| \\      /  F ield         | OpenFOAM: The Open Source CFD Toolbox           |
|  \\    /   O peration     | Version:  5.x                                   |
|   \\  /    A nd           | Web:      www.OpenFOAM.org                      |
|    \\/     M anipulation  |                                                 |
\*---------------------------------------------------------------------------*/
Build  : 5.x-197d9d3bf20a
Exec   : simpleFoam
Date   : Jan 29 2019
Time   : 23:07:04
Host   : "palak"
PID    : 2213
I/O    : uncollated
Case   : /home/palak/OpenFOAM/palak-5.0/run/Z1flatanalytical
nProcs : 1
sigFpe : Enabling floating point exception trapping (FOAM_SIGFPE).
fileModificationChecking : Monitoring run-time modified files using timeStampMaster (fileModificationSkew 10)
allowSystemOperations : Allowing user-supplied system call operations

// * * * * * * * * * * * * * * * * * * * * * * * * * * * * * * * * * * * * * //
Create time

Create mesh for time = 0


SIMPLE: convergence criteria
    field p	 tolerance 0.001
    field U	 tolerance 0.0001
    field "(k|epsilon)"	 tolerance 0.0001

Reading field p

Reading field U

Reading/calculating face flux field phi

Selecting incompressible transport model Newtonian
Selecting turbulence model type laminar
Selecting laminar stress model Stokes
No MRF models present

Creating finite volume options from "constant/fvOptions"

Selecting finite volume options model type vectorCodedSource
    Source: momentumSource
    - selecting all cells
    - selected 800 cell(s) with volume 0.2

Starting time loop

Time = 1

Using dynamicCode for fvOption:: bodyForce at line 25 in "/home/palak/OpenFOAM/palak-5.0/run/Z1flatanalytical/constant/fvOptions.momentumSource.vectorCodedSourceCoeffs"
Creating new library in "dynamicCode/bodyForce/platforms/linux64GccDPInt32Opt/lib/libbodyForce_a51304b023fed96647a016704b53a68371b8ac76.so"
Invoking "wmake -s libso /home/palak/OpenFOAM/palak-5.0/run/Z1flatanalytical/dynamicCode/bodyForce"
wmake libso /home/palak/OpenFOAM/palak-5.0/run/Z1flatanalytical/dynamicCode/bodyForce
    wmkdep: codedFvOptionTemplate.C
    Ctoo: codedFvOptionTemplate.C
    ld: /home/palak/OpenFOAM/palak-5.0/run/Z1flatanalytical/dynamicCode/bodyForce/../platforms/linux64GccDPInt32Opt/lib/libbodyForce_a51304b023fed96647a016704b53a68371b8ac76.so
Selecting finite volume options model type bodyForce
    Source: bodyForce
    - selecting all cells
    - selected 800 cell(s) with volume 0.2
**codeSetValue**
smoothSolver:  Solving for Ux, Initial residual = 1, Final residual = 0.000190637, No Iterations 1
smoothSolver:  Solving for Uy, Initial residual = 1, Final residual = 0.000190637, No Iterations 1
**codeCorrect**
GAMG:  Solving for p, Initial residual = 1, Final residual = 0.0904549, No Iterations 2
time step continuity errors : sum local = 0.0494679, global = -0.00385892, cumulative = -0.00385892
**codeCorrect**
ExecutionTime = 0.19 s  ClockTime = 43 s

Time = 2

**codeSetValue**
smoothSolver:  Solving for Ux, Initial residual = 0.307899, Final residual = 0.0107102, No Iterations 3
smoothSolver:  Solving for Uy, Initial residual = 0.472917, Final residual = 0.0453991, No Iterations 2
**codeCorrect**
GAMG:  Solving for p, Initial residual = 0.0782707, Final residual = 0.00670988, No Iterations 2
time step continuity errors : sum local = 0.0266891, global = 0.000642371, cumulative = -0.00321655
**codeCorrect**
ExecutionTime = 0.2 s  ClockTime = 43 s

Time = 3

**codeSetValue**
smoothSolver:  Solving for Ux, Initial residual = 0.774713, Final residual = 0.034866, No Iterations 2
smoothSolver:  Solving for Uy, Initial residual = 0.248133, Final residual = 0.00883317, No Iterations 2
**codeCorrect**
GAMG:  Solving for p, Initial residual = 0.0863149, Final residual = 0.00639284, No Iterations 2
time step continuity errors : sum local = 0.0358275, global = 0.00176113, cumulative = -0.00145542
**codeCorrect**
ExecutionTime = 0.2 s  ClockTime = 43 s

Time = 4

**codeSetValue**
smoothSolver:  Solving for Ux, Initial residual = 0.26831, Final residual = 0.018647, No Iterations 2
smoothSolver:  Solving for Uy, Initial residual = 0.102987, Final residual = 0.00461533, No Iterations 2
**codeCorrect**
GAMG:  Solving for p, Initial residual = 0.283576, Final residual = 0.0215808, No Iterations 2
time step continuity errors : sum local = 0.0454237, global = 0.00130473, cumulative = -0.000150691
**codeCorrect**
ExecutionTime = 0.2 s  ClockTime = 43 s

Time = 5

**codeSetValue**
smoothSolver:  Solving for Ux, Initial residual = 0.465801, Final residual = 0.0281367, No Iterations 2
smoothSolver:  Solving for Uy, Initial residual = 0.0631677, Final residual = 0.00270373, No Iterations 2
**codeCorrect**
GAMG:  Solving for p, Initial residual = 0.0640265, Final residual = 0.00528659, No Iterations 2
time step continuity errors : sum local = 0.0160066, global = 7.94848e-05, cumulative = -7.12064e-05
**codeCorrect**
ExecutionTime = 0.22 s  ClockTime = 43 s

Time = 6

**codeSetValue**
smoothSolver:  Solving for Ux, Initial residual = 0.756857, Final residual = 0.0502637, No Iterations 2
smoothSolver:  Solving for Uy, Initial residual = 0.0621786, Final residual = 0.00291452, No Iterations 2
**codeCorrect**
GAMG:  Solving for p, Initial residual = 0.0886323, Final residual = 0.00656994, No Iterations 2
time step continuity errors : sum local = 0.0233261, global = 0.0030032, cumulative = 0.00293199
**codeCorrect**
ExecutionTime = 0.22 s  ClockTime = 43 s

Time = 7

**codeSetValue**
smoothSolver:  Solving for Ux, Initial residual = 0.293119, Final residual = 0.0167856, No Iterations 2
smoothSolver:  Solving for Uy, Initial residual = 0.020927, Final residual = 0.000641255, No Iterations 2
**codeCorrect**
GAMG:  Solving for p, Initial residual = 0.33377, Final residual = 0.0265066, No Iterations 2
time step continuity errors : sum local = 0.0280472, global = 0.00176125, cumulative = 0.00469324
**codeCorrect**
ExecutionTime = 0.22 s  ClockTime = 43 s

Time = 8

**codeSetValue**
smoothSolver:  Solving for Ux, Initial residual = 0.479621, Final residual = 0.0273644, No Iterations 2
smoothSolver:  Solving for Uy, Initial residual = 0.0128215, Final residual = 0.000386058, No Iterations 2
**codeCorrect**
GAMG:  Solving for p, Initial residual = 0.0815876, Final residual = 0.00640112, No Iterations 2
time step continuity errors : sum local = 0.0136186, global = 0.00117378, cumulative = 0.00586702
**codeCorrect**
ExecutionTime = 0.23 s  ClockTime = 43 s

Time = 9

**codeSetValue**
smoothSolver:  Solving for Ux, Initial residual = 0.67247, Final residual = 0.0411704, No Iterations 2
smoothSolver:  Solving for Uy, Initial residual = 0.016027, Final residual = 0.000655478, No Iterations 2
**codeCorrect**
GAMG:  Solving for p, Initial residual = 0.0843553, Final residual = 0.00657872, No Iterations 2
time step continuity errors : sum local = 0.0155705, global = -0.00130815, cumulative = 0.00455887
**codeCorrect**
ExecutionTime = 0.23 s  ClockTime = 43 s

Time = 10

 At (0.025 , 0.025 , 0.05 )  Deviation = 6.95036e-310 Body force = (0 , 0 , 0) 
 At (0.075 , 0.025 , 0.05 )  Deviation = 6.95036e-310 Body force = (0 , 0 , 0) 
 At (0.125 , 0.025 , 0.05 )  Deviation = 1.12381e-316 Body force = (0 , 0 , 0) 
 At (0.175 , 0.025 , 0.05 )  Deviation = 1.12381e-316 Body force = (0 , 0 , 0) 
 At (0.225 , 0.025 , 0.05 )  Deviation = 9.98446 Body force = (0 , 0 , 0) 
 At (0.275 , 0.025 , 0.05 )  Deviation = -1.72461 Body force = (0 , 0 , 0) 
 At (0.325 , 0.025 , 0.05 )  Deviation = 0 Body force = (0 , 0 , 0) 
 At (0.375 , 0.025 , 0.05 )  Deviation = 9.9977 Body force = (0 , 0 , 0) 
 At (0.425 , 0.025 , 0.05 )  Deviation = -1.73721 Body force = (0 , 0 , 0) 
 At (0.475 , 0.025 , 0.05 )  Deviation = 0 Body force = (0 , 0 , 0) 
 At (0.525 , 0.025 , 0.05 )  Deviation = 0.0979774 Body force = (-15.0972 , -153.596 , -0) 
 At (0.575 , 0.025 , 0.05 )  Deviation = 0.0549977 Body force = (-4.82007 , -87.5529 , -0) 
 At (0.625 , 0.025 , 0.05 )  Deviation = 0.0308948 Body force = (-1.53222 , -49.5791 , -0) 
 At (0.675 , 0.025 , 0.05 )  Deviation = 0.0173528 Body force = (-0.484501 , -27.9178 , -0) 
 At (0.725 , 0.025 , 0.05 )  Deviation = 0.00982519 Body force = (-0.155423 , -15.8183 , -0) 
 At (0.775 , 0.025 , 0.05 )  Deviation = 0.00573228 Body force = (-0.0529479 , -9.23671 , -0) 
 At (0.825 , 0.025 , 0.05 )  Deviation = 0.00357995 Body force = (-0.0206841 , -5.77773 , -0) 
 At (0.875 , 0.025 , 0.05 )  Deviation = 0.00250062 Body force = (-0.0101153 , -4.04512 , -0) 
 At (0.925 , 0.025 , 0.05 )  Deviation = 0.00200094 Body force = (-0.006495 , -3.24597 , -0) 
 At (0.975 , 0.025 , 0.05 )  Deviation = 0.00180146 Body force = (-0.00528101 , -2.93151 , -0) 
 At (1.025 , 0.025 , 0.05 )  Deviation = 0.00174832 Body force = (-0.00499015 , -2.85425 , -0) 
 At (1.075 , 0.025 , 0.05 )  Deviation = 0.00175615 Body force = (-0.00505101 , -2.87617 , -0) 
 At (1.125 , 0.025 , 0.05 )  Deviation = 0.00178011 Body force = (-0.00520523 , -2.9241 , -0) 
 At (1.175 , 0.025 , 0.05 )  Deviation = 0.0017975 Body force = (-0.0053216 , -2.96056 , -0) 
 At (1.225 , 0.025 , 0.05 )  Deviation = 0.00180005 Body force = (-0.00534899 , -2.97157 , -0) 
 At (1.275 , 0.025 , 0.05 )  Deviation = 0.00178761 Body force = (-0.00528533 , -2.95664 , -0) 
 At (1.325 , 0.025 , 0.05 )  Deviation = 0.00176409 Body force = (-0.005155 , -2.92219 , -0) 
 At (1.375 , 0.025 , 0.05 )  Deviation = 0.00173084 Body force = (-0.00496811 , -2.87035 , -0) 
 At (1.425 , 0.025 , 0.05 )  Deviation = 0.00169204 Body force = (-0.00475168 , -2.80826 , -0) 
 At (1.475 , 0.025 , 0.05 )  Deviation = 0.00164789 Body force = (-0.00450879 , -2.7361 , -0) 
 At (1.525 , 0.025 , 0.05 )  Deviation = 0 Body force = (0 , 0 , 0) 
 At (1.575 , 0.025 , 0.05 )  Deviation = 10.1477 Body force = (0 , 0 , 0) 
 At (1.625 , 0.025 , 0.05 )  Deviation = -1.76291 Body force = (0 , 0 , 0) 
 At (1.675 , 0.025 , 0.05 )  Deviation = 0 Body force = (0 , 0 , 0) 
 At (1.725 , 0.025 , 0.05 )  Deviation = 10.1583 Body force = (0 , 0 , 0) 
 At (1.775 , 0.025 , 0.05 )  Deviation = -1.76443 Body force = (0 , 0 , 0) 
 At (1.825 , 0.025 , 0.05 )  Deviation = 0 Body force = (0 , 0 , 0) 
 At (1.875 , 0.025 , 0.05 )  Deviation = 10.1663 Body force = (0 , 0 , 0) 
 At (1.925 , 0.025 , 0.05 )  Deviation = -1.76571 Body force = (0 , 0 , 0) 
 At (1.975 , 0.025 , 0.05 )  Deviation = 0 Body force = (0 , 0 , 0) 
 At (0.025 , 0.075 , 0.05 )  Deviation = 10.172 Body force = (0 , 0 , 0) 
 At (0.075 , 0.075 , 0.05 )  Deviation = -1.76676 Body force = (0 , 0 , 0) 
 At (0.125 , 0.075 , 0.05 )  Deviation = 0 Body force = (0 , 0 , 0) 
 At (0.175 , 0.075 , 0.05 )  Deviation = 10.1751 Body force = (0 , 0 , 0) 
 At (0.225 , 0.075 , 0.05 )  Deviation = -1.76753 Body force = (0 , 0 , 0) 
 At (0.275 , 0.075 , 0.05 )  Deviation = 0 Body force = (0 , 0 , 0) 
 At (0.325 , 0.075 , 0.05 )  Deviation = 10.1777 Body force = (0 , 0 , 0) 
 At (0.375 , 0.075 , 0.05 )  Deviation = -1.75257 Body force = (0 , 0 , 0) 
 At (0.425 , 0.075 , 0.05 )  Deviation = 0 Body force = (0 , 0 , 0) 
 At (0.475 , 0.075 , 0.05 )  Deviation = 10.1884 Body force = (0 , 0 , 0) 
 At (0.525 , 0.075 , 0.05 )  Deviation = 0.0979728 Body force = (-15.0962 , -153.592 , -0) 
 At (0.575 , 0.075 , 0.05 )  Deviation = 0.055013 Body force = (-4.82287 , -87.5795 , -0) 
 At (0.625 , 0.075 , 0.05 )  Deviation = 0.030911 Body force = (-1.53386 , -49.606 , -0) 
 At (0.675 , 0.075 , 0.05 )  Deviation = 0.0173622 Body force = (-0.485031 , -27.9332 , -0) 
 At (0.725 , 0.075 , 0.05 )  Deviation = 0.00982575 Body force = (-0.155441 , -15.8193 , -0) 
 At (0.775 , 0.075 , 0.05 )  Deviation = 0.0057289 Body force = (-0.0528859 , -9.23132 , -0) 
 At (0.825 , 0.075 , 0.05 )  Deviation = 0.00357587 Body force = (-0.0206372 , -5.77121 , -0) 
 At (0.875 , 0.075 , 0.05 )  Deviation = 0.00249955 Body force = (-0.0101068 , -4.04343 , -0) 
 At (0.925 , 0.075 , 0.05 )  Deviation = 0.00200292 Body force = (-0.00650791 , -3.24921 , -0) 
 At (0.975 , 0.075 , 0.05 )  Deviation = 0.00180654 Body force = (-0.00531088 , -2.9398 , -0) 
 At (1.025 , 0.075 , 0.05 )  Deviation = 0.0017547 Body force = (-0.00502667 , -2.86469 , -0) 
 At (1.075 , 0.075 , 0.05 )  Deviation = 0.00176232 Body force = (-0.00508659 , -2.88629 , -0) 
 At (1.125 , 0.075 , 0.05 )  Deviation = 0.00178393 Body force = (-0.00522763 , -2.93039 , -0) 
 At (1.175 , 0.075 , 0.05 )  Deviation = 0.00179769 Body force = (-0.00532274 , -2.96087 , -0) 
 At (1.225 , 0.075 , 0.05 )  Deviation = 0.00179657 Body force = (-0.00532832 , -2.96582 , -0) 
 At (1.275 , 0.075 , 0.05 )  Deviation = 0.00178204 Body force = (-0.00525243 , -2.94742 , -0) 
 At (1.325 , 0.075 , 0.05 )  Deviation = 0.00175744 Body force = (-0.00511622 , -2.91118 , -0) 
 At (1.375 , 0.075 , 0.05 )  Deviation = 0.00172204 Body force = (-0.00491776 , -2.85576 , -0) 
 At (1.425 , 0.075 , 0.05 )  Deviation = 0.00167885 Body force = (-0.00467783 , -2.78632 , -0) 
 At (1.475 , 0.075 , 0.05 )  Deviation = 0.00163065 Body force = (-0.00441482 , -2.7074 , -0) 
 At (1.525 , 0.075 , 0.05 )  Deviation = 10.1757 Body force = (0 , 0 , 0) 
 At (1.575 , 0.075 , 0.05 )  Deviation = -1.7197 Body force = (0 , 0 , 0) 
 At (1.625 , 0.075 , 0.05 )  Deviation = 0 Body force = (0 , 0 , 0) 
 At (1.675 , 0.075 , 0.05 )  Deviation = 10.15 Body force = (0 , 0 , 0) 
 At (1.725 , 0.075 , 0.05 )  Deviation = -1.68766 Body force = (0 , 0 , 0) 
 At (1.775 , 0.075 , 0.05 )  Deviation = 0 Body force = (0 , 0 , 0) 
 At (1.825 , 0.075 , 0.05 )  Deviation = 9.99972 Body force = (0 , 0 , 0) 
 At (1.875 , 0.075 , 0.05 )  Deviation = 0.00018829 Body force = (0 , 0 , 0) 
 At (1.925 , 0.075 , 0.05 )  Deviation = 0 Body force = (0 , 0 , 0) 
 At (1.975 , 0.075 , 0.05 )  Deviation = 9.99891 Body force = (0 , 0 , 0) 
 At (0.025 , 0.125 , 0.05 )  Deviation = 0.000421251 Body force = (0 , 0 , 0) 
 At (0.075 , 0.125 , 0.05 )  Deviation = 0 Body force = (0 , 0 , 0) 
 At (0.125 , 0.125 , 0.05 )  Deviation = 9.99777 Body force = (0 , 0 , 0) 
 At (0.175 , 0.125 , 0.05 )  Deviation = 0.000652318 Body force = (0 , 0 , 0) 
 At (0.225 , 0.125 , 0.05 )  Deviation = 0 Body force = (0 , 0 , 0) 
 At (0.275 , 0.125 , 0.05 )  Deviation = 9.99659 Body force = (0 , 0 , 0) 
 At (0.325 , 0.125 , 0.05 )  Deviation = 0.000848731 Body force = (0 , 0 , 0) 
 At (0.375 , 0.125 , 0.05 )  Deviation = 0 Body force = (0 , 0 , 0) 
 At (0.425 , 0.125 , 0.05 )  Deviation = 9.99569 Body force = (0 , 0 , 0) 
 At (0.475 , 0.125 , 0.05 )  Deviation = 0.000988319 Body force = (0 , 0 , 0) 
 At (0.525 , 0.125 , 0.05 )  Deviation = 0.0979851 Body force = (-15.1001 , -153.613 , -0) 
 At (0.575 , 0.125 , 0.05 )  Deviation = 0.0550204 Body force = (-4.82421 , -87.5919 , -0) 
 At (0.625 , 0.125 , 0.05 )  Deviation = 0.0309149 Body force = (-1.53425 , -49.6124 , -0) 
 At (0.675 , 0.125 , 0.05 )  Deviation = 0.017365 Body force = (-0.485188 , -27.9377 , -0) 
 At (0.725 , 0.125 , 0.05 )  Deviation = 0.00982932 Body force = (-0.155554 , -15.825 , -0) 
 At (0.775 , 0.125 , 0.05 )  Deviation = 0.00573362 Body force = (-0.0529734 , -9.23898 , -0) 
 At (0.825 , 0.125 , 0.05 )  Deviation = 0.00358121 Body force = (-0.020699 , -5.77988 , -0) 
 At (0.875 , 0.125 , 0.05 )  Deviation = 0.00250478 Body force = (-0.0101492 , -4.05193 , -0) 
 At (0.925 , 0.125 , 0.05 )  Deviation = 0.00200745 Body force = (-0.00653747 , -3.2566 , -0) 
 At (0.975 , 0.125 , 0.05 )  Deviation = 0.00181005 Body force = (-0.00533161 , -2.94555 , -0) 
 At (1.025 , 0.125 , 0.05 )  Deviation = 0.00175694 Body force = (-0.00503958 , -2.86838 , -0) 
 At (1.075 , 0.125 , 0.05 )  Deviation = 0.00176319 Body force = (-0.00509159 , -2.88772 , -0) 
 At (1.125 , 0.125 , 0.05 )  Deviation = 0.00178338 Body force = (-0.00522442 , -2.9295 , -0) 
 At (1.175 , 0.125 , 0.05 )  Deviation = 0.00179601 Body force = (-0.00531279 , -2.95811 , -0) 
 At (1.225 , 0.125 , 0.05 )  Deviation = 0.00179401 Body force = (-0.0053131 , -2.96158 , -0) 
 At (1.275 , 0.125 , 0.05 )  Deviation = 0.00177875 Body force = (-0.00523302 , -2.94196 , -0) 
 At (1.325 , 0.125 , 0.05 )  Deviation = 0.00175339 Body force = (-0.00509265 , -2.90446 , -0) 
 At (1.375 , 0.125 , 0.05 )  Deviation = 0.00171806 Body force = (-0.004895 , -2.84913 , -0) 
 At (1.425 , 0.125 , 0.05 )  Deviation = 0.00167672 Body force = (-0.00466586 , -2.78273 , -0) 
 At (1.475 , 0.125 , 0.05 )  Deviation = 0.00163274 Body force = (-0.00442607 , -2.71082 , -0) 
 At (1.525 , 0.125 , 0.05 )  Deviation = -1.20151 Body force = (0 , 0 , 0) 
 At (1.575 , 0.125 , 0.05 )  Deviation = 0 Body force = (0 , 0 , 0) 
 At (1.625 , 0.125 , 0.05 )  Deviation = 10.0045 Body force = (0 , 0 , 0) 
 At (1.675 , 0.125 , 0.05 )  Deviation = -1.44757 Body force = (0 , 0 , 0) 
 At (1.725 , 0.125 , 0.05 )  Deviation = 0 Body force = (0 , 0 , 0) 
 At (1.775 , 0.125 , 0.05 )  Deviation = 9.99254 Body force = (0 , 0 , 0) 
 At (1.825 , 0.125 , 0.05 )  Deviation = -1.58478 Body force = (0 , 0 , 0) 
 At (1.875 , 0.125 , 0.05 )  Deviation = 0 Body force = (0 , 0 , 0) 
 At (1.925 , 0.125 , 0.05 )  Deviation = 9.98134 Body force = (0 , 0 , 0) 
 At (1.975 , 0.125 , 0.05 )  Deviation = -1.66047 Body force = (0 , 0 , 0) 
 At (0.025 , 0.175 , 0.05 )  Deviation = 0 Body force = (0 , 0 , 0) 
 At (0.075 , 0.175 , 0.05 )  Deviation = 9.97835 Body force = (0 , 0 , 0) 
 At (0.125 , 0.175 , 0.05 )  Deviation = -1.70193 Body force = (0 , 0 , 0) 
 At (0.175 , 0.175 , 0.05 )  Deviation = 0 Body force = (0 , 0 , 0) 
 At (0.225 , 0.175 , 0.05 )  Deviation = 9.98443 Body force = (0 , 0 , 0) 
 At (0.275 , 0.175 , 0.05 )  Deviation = -1.72463 Body force = (0 , 0 , 0) 
 At (0.325 , 0.175 , 0.05 )  Deviation = 0 Body force = (0 , 0 , 0) 
 At (0.375 , 0.175 , 0.05 )  Deviation = 9.99767 Body force = (0 , 0 , 0) 
 At (0.425 , 0.175 , 0.05 )  Deviation = -1.73723 Body force = (0 , 0 , 0) 
 At (0.475 , 0.175 , 0.05 )  Deviation = 0 Body force = (0 , 0 , 0) 
 At (0.525 , 0.175 , 0.05 )  Deviation = 0.0979877 Body force = (-15.101 , -153.618 , -0) 
 At (0.575 , 0.175 , 0.05 )  Deviation = 0.0550176 Body force = (-4.82374 , -87.5878 , -0) 
 At (0.625 , 0.175 , 0.05 )  Deviation = 0.0309108 Body force = (-1.53385 , -49.6059 , -0) 
 At (0.675 , 0.175 , 0.05 )  Deviation = 0.0173617 Body force = (-0.485004 , -27.9324 , -0) 
 At (0.725 , 0.175 , 0.05 )  Deviation = 0.00982809 Body force = (-0.155516 , -15.8231 , -0) 
 At (0.775 , 0.175 , 0.05 )  Deviation = 0.00573388 Body force = (-0.0529783 , -9.23943 , -0) 
 At (0.825 , 0.175 , 0.05 )  Deviation = 0.00358261 Body force = (-0.0207154 , -5.78219 , -0) 
 At (0.875 , 0.175 , 0.05 )  Deviation = 0.00250654 Body force = (-0.0101636 , -4.05483 , -0) 
 At (0.925 , 0.175 , 0.05 )  Deviation = 0.0020095 Body force = (-0.00655088 , -3.25995 , -0) 
 At (0.975 , 0.175 , 0.05 )  Deviation = 0.001812 Body force = (-0.00534314 , -2.94875 , -0) 
 At (1.025 , 0.175 , 0.05 )  Deviation = 0.00175869 Body force = (-0.00504964 , -2.87125 , -0) 
 At (1.075 , 0.175 , 0.05 )  Deviation = 0.00176438 Body force = (-0.00509853 , -2.8897 , -0) 
 At (1.125 , 0.175 , 0.05 )  Deviation = 0.00178389 Body force = (-0.00522744 , -2.93035 , -0) 
 At (1.175 , 0.175 , 0.05 )  Deviation = 0.00179572 Body force = (-0.00531107 , -2.95763 , -0) 
 At (1.225 , 0.175 , 0.05 )  Deviation = 0.00179299 Body force = (-0.00530704 , -2.95988 , -0) 
 At (1.275 , 0.175 , 0.05 )  Deviation = 0.00177691 Body force = (-0.00522217 , -2.9389 , -0) 
 At (1.325 , 0.175 , 0.05 )  Deviation = 0.00175089 Body force = (-0.00507809 , -2.90029 , -0) 
 At (1.375 , 0.175 , 0.05 )  Deviation = 0.00171546 Body force = (-0.00488011 , -2.84478 , -0) 
 At (1.425 , 0.175 , 0.05 )  Deviation = 0.00167543 Body force = (-0.0046586 , -2.78055 , -0) 
 At (1.475 , 0.175 , 0.05 )  Deviation = 0.00163393 Body force = (-0.00443246 , -2.71275 , -0) 
 At (1.525 , 0.175 , 0.05 )  Deviation = 0 Body force = (0 , 0 , 0) 
 At (1.575 , 0.175 , 0.05 )  Deviation = 10.1477 Body force = (0 , 0 , 0) 
 At (1.625 , 0.175 , 0.05 )  Deviation = -1.76288 Body force = (0 , 0 , 0) 
 At (1.675 , 0.175 , 0.05 )  Deviation = 0 Body force = (0 , 0 , 0) 
 At (1.725 , 0.175 , 0.05 )  Deviation = 10.1584 Body force = (0 , 0 , 0) 
 At (1.775 , 0.175 , 0.05 )  Deviation = -1.76439 Body force = (0 , 0 , 0) 
 At (1.825 , 0.175 , 0.05 )  Deviation = 0 Body force = (0 , 0 , 0) 
 At (1.875 , 0.175 , 0.05 )  Deviation = 10.1664 Body force = (0 , 0 , 0) 
 At (1.925 , 0.175 , 0.05 )  Deviation = -1.76568 Body force = (0 , 0 , 0) 
 At (1.975 , 0.175 , 0.05 )  Deviation = 0 Body force = (0 , 0 , 0) 
 At (0.025 , 0.225 , 0.05 )  Deviation = 10.1721 Body force = (0 , 0 , 0) 
 At (0.075 , 0.225 , 0.05 )  Deviation = -1.76674 Body force = (0 , 0 , 0) 
 At (0.125 , 0.225 , 0.05 )  Deviation = 0 Body force = (0 , 0 , 0) 
 At (0.175 , 0.225 , 0.05 )  Deviation = 10.1752 Body force = (0 , 0 , 0) 
 At (0.225 , 0.225 , 0.05 )  Deviation = -1.76751 Body force = (0 , 0 , 0) 
 At (0.275 , 0.225 , 0.05 )  Deviation = 0 Body force = (0 , 0 , 0) 
 At (0.325 , 0.225 , 0.05 )  Deviation = 10.1778 Body force = (0 , 0 , 0) 
 At (0.375 , 0.225 , 0.05 )  Deviation = -1.75253 Body force = (0 , 0 , 0) 
 At (0.425 , 0.225 , 0.05 )  Deviation = 0 Body force = (0 , 0 , 0) 
 At (0.475 , 0.225 , 0.05 )  Deviation = 10.1884 Body force = (0 , 0 , 0) 
 At (0.525 , 0.225 , 0.05 )  Deviation = 0.097987 Body force = (-15.1009 , -153.618 , -0) 
 At (0.575 , 0.225 , 0.05 )  Deviation = 0.055013 Body force = (-4.82295 , -87.5808 , -0) 
 At (0.625 , 0.225 , 0.05 )  Deviation = 0.0309052 Body force = (-1.53329 , -49.5969 , -0) 
 At (0.675 , 0.225 , 0.05 )  Deviation = 0.0173569 Body force = (-0.484733 , -27.9246 , -0) 
 At (0.725 , 0.225 , 0.05 )  Deviation = 0.00982465 Body force = (-0.155407 , -15.8176 , -0) 
 At (0.775 , 0.225 , 0.05 )  Deviation = 0.00573192 Body force = (-0.0529425 , -9.23633 , -0) 
 At (0.825 , 0.225 , 0.05 )  Deviation = 0.00358183 Body force = (-0.0207065 , -5.78096 , -0) 
 At (0.875 , 0.225 , 0.05 )  Deviation = 0.00250669 Body force = (-0.0101649 , -4.05511 , -0) 
 At (0.925 , 0.225 , 0.05 )  Deviation = 0.00201031 Body force = (-0.00655628 , -3.26131 , -0) 
 At (0.975 , 0.225 , 0.05 )  Deviation = 0.00181328 Body force = (-0.00535073 , -2.95086 , -0) 
 At (1.025 , 0.225 , 0.05 )  Deviation = 0.00176012 Body force = (-0.00505792 , -2.87362 , -0) 
 At (1.075 , 0.225 , 0.05 )  Deviation = 0.00176569 Body force = (-0.00510613 , -2.89186 , -0) 
 At (1.125 , 0.225 , 0.05 )  Deviation = 0.00178485 Body force = (-0.00523306 , -2.93193 , -0) 
 At (1.175 , 0.225 , 0.05 )  Deviation = 0.00179621 Body force = (-0.00531395 , -2.95842 , -0) 
 At (1.225 , 0.225 , 0.05 )  Deviation = 0.00179296 Body force = (-0.0053068 , -2.9598 , -0) 
 At (1.275 , 0.225 , 0.05 )  Deviation = 0.00177634 Body force = (-0.00521877 , -2.93793 , -0) 
 At (1.325 , 0.225 , 0.05 )  Deviation = 0.00174989 Body force = (-0.00507222 , -2.8986 , -0) 
 At (1.375 , 0.225 , 0.05 )  Deviation = 0.00171445 Body force = (-0.00487432 , -2.84308 , -0) 
 At (1.425 , 0.225 , 0.05 )  Deviation = 0.00167507 Body force = (-0.00465656 , -2.77992 , -0) 
 At (1.475 , 0.225 , 0.05 )  Deviation = 0.00163463 Body force = (-0.00443618 , -2.71388 , -0) 
 At (1.525 , 0.225 , 0.05 )  Deviation = 10.1757 Body force = (0 , 0 , 0) 
 At (1.575 , 0.225 , 0.05 )  Deviation = -1.71969 Body force = (0 , 0 , 0) 
 At (1.625 , 0.225 , 0.05 )  Deviation = 0 Body force = (0 , 0 , 0) 
 At (1.675 , 0.225 , 0.05 )  Deviation = 10.1501 Body force = (0 , 0 , 0) 
 At (1.725 , 0.225 , 0.05 )  Deviation = -1.68764 Body force = (0 , 0 , 0) 
 At (1.775 , 0.225 , 0.05 )  Deviation = 0 Body force = (0 , 0 , 0) 
 At (1.825 , 0.225 , 0.05 )  Deviation = 9.99972 Body force = (0 , 0 , 0) 
 At (1.875 , 0.225 , 0.05 )  Deviation = 0.000226317 Body force = (0 , 0 , 0) 
 At (1.925 , 0.225 , 0.05 )  Deviation = 0 Body force = (0 , 0 , 0) 
 At (1.975 , 0.225 , 0.05 )  Deviation = 9.9989 Body force = (0 , 0 , 0) 
 At (0.025 , 0.275 , 0.05 )  Deviation = 0.000500578 Body force = (0 , 0 , 0) 
 At (0.075 , 0.275 , 0.05 )  Deviation = 0 Body force = (0 , 0 , 0) 
 At (0.125 , 0.275 , 0.05 )  Deviation = 9.99774 Body force = (0 , 0 , 0) 
 At (0.175 , 0.275 , 0.05 )  Deviation = 0.000769809 Body force = (0 , 0 , 0) 
 At (0.225 , 0.275 , 0.05 )  Deviation = 0 Body force = (0 , 0 , 0) 
 At (0.275 , 0.275 , 0.05 )  Deviation = 9.99655 Body force = (0 , 0 , 0) 
 At (0.325 , 0.275 , 0.05 )  Deviation = 0.000993699 Body force = (0 , 0 , 0) 
 At (0.375 , 0.275 , 0.05 )  Deviation = 0 Body force = (0 , 0 , 0) 
 At (0.425 , 0.275 , 0.05 )  Deviation = 9.99563 Body force = (0 , 0 , 0) 
 At (0.475 , 0.275 , 0.05 )  Deviation = 0.00114752 Body force = (0 , 0 , 0) 
 At (0.525 , 0.275 , 0.05 )  Deviation = 0.0979881 Body force = (-15.1013 , -153.62 , -0) 
 At (0.575 , 0.275 , 0.05 )  Deviation = 0.0550094 Body force = (-4.82233 , -87.5753 , -0) 
 At (0.625 , 0.275 , 0.05 )  Deviation = 0.0308998 Body force = (-1.53276 , -49.5885 , -0) 
 At (0.675 , 0.275 , 0.05 )  Deviation = 0.0173516 Body force = (-0.484441 , -27.9162 , -0) 
 At (0.725 , 0.275 , 0.05 )  Deviation = 0.00982043 Body force = (-0.155274 , -15.8108 , -0) 
 At (0.775 , 0.275 , 0.05 )  Deviation = 0.00572893 Body force = (-0.0528874 , -9.23153 , -0) 
 At (0.825 , 0.275 , 0.05 )  Deviation = 0.00358004 Body force = (-0.020686 , -5.77812 , -0) 
 At (0.875 , 0.275 , 0.05 )  Deviation = 0.00250592 Body force = (-0.0101587 , -4.05388 , -0) 
 At (0.925 , 0.275 , 0.05 )  Deviation = 0.00201038 Body force = (-0.00655677 , -3.26145 , -0) 
 At (0.975 , 0.275 , 0.05 )  Deviation = 0.00181393 Body force = (-0.00535464 , -2.95195 , -0) 
 At (1.025 , 0.275 , 0.05 )  Deviation = 0.00176112 Body force = (-0.00506373 , -2.87528 , -0) 
 At (1.075 , 0.275 , 0.05 )  Deviation = 0.00176679 Body force = (-0.00511253 , -2.89368 , -0) 
 At (1.125 , 0.275 , 0.05 )  Deviation = 0.00178588 Body force = (-0.00523912 , -2.93363 , -0) 
 At (1.175 , 0.275 , 0.05 )  Deviation = 0.0017971 Body force = (-0.00531919 , -2.95988 , -0) 
 At (1.225 , 0.275 , 0.05 )  Deviation = 0.00179369 Body force = (-0.0053111 , -2.96099 , -0) 
 At (1.275 , 0.275 , 0.05 )  Deviation = 0.0017769 Body force = (-0.005222 , -2.93882 , -0) 
 At (1.325 , 0.275 , 0.05 )  Deviation = 0.00175027 Body force = (-0.00507439 , -2.8992 , -0) 
 At (1.375 , 0.275 , 0.05 )  Deviation = 0.00171477 Body force = (-0.00487611 , -2.84359 , -0) 
 At (1.425 , 0.275 , 0.05 )  Deviation = 0.00167556 Body force = (-0.00465928 , -2.78072 , -0) 
 At (1.475 , 0.275 , 0.05 )  Deviation = 0.00163543 Body force = (-0.00444055 , -2.71521 , -0) 
 At (1.525 , 0.275 , 0.05 )  Deviation = -1.20151 Body force = (0 , 0 , 0) 
 At (1.575 , 0.275 , 0.05 )  Deviation = 0 Body force = (0 , 0 , 0) 
 At (1.625 , 0.275 , 0.05 )  Deviation = 10.0044 Body force = (0 , 0 , 0) 
 At (1.675 , 0.275 , 0.05 )  Deviation = -1.44758 Body force = (0 , 0 , 0) 
 At (1.725 , 0.275 , 0.05 )  Deviation = 0 Body force = (0 , 0 , 0) 
 At (1.775 , 0.275 , 0.05 )  Deviation = 9.99246 Body force = (0 , 0 , 0) 
 At (1.825 , 0.275 , 0.05 )  Deviation = -1.5848 Body force = (0 , 0 , 0) 
 At (1.875 , 0.275 , 0.05 )  Deviation = 0 Body force = (0 , 0 , 0) 
 At (1.925 , 0.275 , 0.05 )  Deviation = 9.98128 Body force = (0 , 0 , 0) 
 At (1.975 , 0.275 , 0.05 )  Deviation = -1.66049 Body force = (0 , 0 , 0) 
 At (0.025 , 0.325 , 0.05 )  Deviation = 0 Body force = (0 , 0 , 0) 
 At (0.075 , 0.325 , 0.05 )  Deviation = 9.9783 Body force = (0 , 0 , 0) 
 At (0.125 , 0.325 , 0.05 )  Deviation = -1.70195 Body force = (0 , 0 , 0) 
 At (0.175 , 0.325 , 0.05 )  Deviation = 0 Body force = (0 , 0 , 0) 
 At (0.225 , 0.325 , 0.05 )  Deviation = 9.98439 Body force = (0 , 0 , 0) 
 At (0.275 , 0.325 , 0.05 )  Deviation = -1.72465 Body force = (0 , 0 , 0) 
 At (0.325 , 0.325 , 0.05 )  Deviation = 0 Body force = (0 , 0 , 0) 
 At (0.375 , 0.325 , 0.05 )  Deviation = 9.99763 Body force = (0 , 0 , 0) 
 At (0.425 , 0.325 , 0.05 )  Deviation = -1.73725 Body force = (0 , 0 , 0) 
 At (0.475 , 0.325 , 0.05 )  Deviation = 0 Body force = (0 , 0 , 0) 
 At (0.525 , 0.325 , 0.05 )  Deviation = 0.0979891 Body force = (-15.1017 , -153.623 , -0) 
 At (0.575 , 0.325 , 0.05 )  Deviation = 0.0550056 Body force = (-4.82169 , -87.5697 , -0) 
 At (0.625 , 0.325 , 0.05 )  Deviation = 0.0308943 Body force = (-1.53222 , -49.5797 , -0) 
 At (0.675 , 0.325 , 0.05 )  Deviation = 0.017346 Body force = (-0.484128 , -27.9072 , -0) 
 At (0.725 , 0.325 , 0.05 )  Deviation = 0.00981564 Body force = (-0.155123 , -15.8031 , -0) 
 At (0.775 , 0.325 , 0.05 )  Deviation = 0.0057253 Body force = (-0.0528206 , -9.22572 , -0) 
 At (0.825 , 0.325 , 0.05 )  Deviation = 0.0035776 Body force = (-0.0206579 , -5.77421 , -0) 
 At (0.875 , 0.325 , 0.05 )  Deviation = 0.00250454 Body force = (-0.0101476 , -4.05169 , -0) 
 At (0.925 , 0.325 , 0.05 )  Deviation = 0.00200988 Body force = (-0.00655356 , -3.26067 , -0) 
 At (0.975 , 0.325 , 0.05 )  Deviation = 0.00181409 Body force = (-0.00535563 , -2.95224 , -0) 
 At (1.025 , 0.325 , 0.05 )  Deviation = 0.00176172 Body force = (-0.00506721 , -2.87628 , -0) 
 At (1.075 , 0.325 , 0.05 )  Deviation = 0.00176765 Body force = (-0.00511752 , -2.8951 , -0) 
 At (1.125 , 0.325 , 0.05 )  Deviation = 0.0017869 Body force = (-0.00524507 , -2.93529 , -0) 
 At (1.175 , 0.325 , 0.05 )  Deviation = 0.00179824 Body force = (-0.00532592 , -2.96174 , -0) 
 At (1.225 , 0.325 , 0.05 )  Deviation = 0.00179495 Body force = (-0.00531854 , -2.96305 , -0) 
 At (1.275 , 0.325 , 0.05 )  Deviation = 0.00177824 Body force = (-0.00522986 , -2.94102 , -0) 
 At (1.325 , 0.325 , 0.05 )  Deviation = 0.00175163 Body force = (-0.00508225 , -2.90143 , -0) 
 At (1.375 , 0.325 , 0.05 )  Deviation = 0.0017161 Body force = (-0.00488363 , -2.84576 , -0) 
 At (1.425 , 0.325 , 0.05 )  Deviation = 0.00167683 Body force = (-0.00466632 , -2.78281 , -0) 
 At (1.475 , 0.325 , 0.05 )  Deviation = 0.00163653 Body force = (-0.00444648 , -2.71701 , -0) 
 At (1.525 , 0.325 , 0.05 )  Deviation = 0 Body force = (0 , 0 , 0) 
 At (1.575 , 0.325 , 0.05 )  Deviation = 10.1478 Body force = (0 , 0 , 0) 
 At (1.625 , 0.325 , 0.05 )  Deviation = -1.76286 Body force = (0 , 0 , 0) 
 At (1.675 , 0.325 , 0.05 )  Deviation = 0 Body force = (0 , 0 , 0) 
 At (1.725 , 0.325 , 0.05 )  Deviation = 10.1585 Body force = (0 , 0 , 0) 
 At (1.775 , 0.325 , 0.05 )  Deviation = -1.76437 Body force = (0 , 0 , 0) 
 At (1.825 , 0.325 , 0.05 )  Deviation = 0 Body force = (0 , 0 , 0) 
 At (1.875 , 0.325 , 0.05 )  Deviation = 10.1665 Body force = (0 , 0 , 0) 
 At (1.925 , 0.325 , 0.05 )  Deviation = -1.76566 Body force = (0 , 0 , 0) 
 At (1.975 , 0.325 , 0.05 )  Deviation = 0 Body force = (0 , 0 , 0) 
 At (0.025 , 0.375 , 0.05 )  Deviation = 10.1722 Body force = (0 , 0 , 0) 
 At (0.075 , 0.375 , 0.05 )  Deviation = -1.76673 Body force = (0 , 0 , 0) 
 At (0.125 , 0.375 , 0.05 )  Deviation = 0 Body force = (0 , 0 , 0) 
 At (0.175 , 0.375 , 0.05 )  Deviation = 10.1752 Body force = (0 , 0 , 0) 
 At (0.225 , 0.375 , 0.05 )  Deviation = -1.76751 Body force = (0 , 0 , 0) 
 At (0.275 , 0.375 , 0.05 )  Deviation = 0 Body force = (0 , 0 , 0) 
 At (0.325 , 0.375 , 0.05 )  Deviation = 10.1779 Body force = (0 , 0 , 0) 
 At (0.375 , 0.375 , 0.05 )  Deviation = -1.75252 Body force = (0 , 0 , 0) 
 At (0.425 , 0.375 , 0.05 )  Deviation = 0 Body force = (0 , 0 , 0) 
 At (0.475 , 0.375 , 0.05 )  Deviation = 10.1885 Body force = (0 , 0 , 0) 
 At (0.525 , 0.375 , 0.05 )  Deviation = 0.0979907 Body force = (-15.1023 , -153.626 , -0) 
 At (0.575 , 0.375 , 0.05 )  Deviation = 0.0550021 Body force = (-4.82109 , -87.5643 , -0) 
 At (0.625 , 0.375 , 0.05 )  Deviation = 0.0308887 Body force = (-1.53166 , -49.5708 , -0) 
 At (0.675 , 0.375 , 0.05 )  Deviation = 0.0173401 Body force = (-0.4838 , -27.8978 , -0) 
 At (0.725 , 0.375 , 0.05 )  Deviation = 0.00981043 Body force = (-0.154958 , -15.7948 , -0) 
 At (0.775 , 0.375 , 0.05 )  Deviation = 0.0057212 Body force = (-0.0527451 , -9.21913 , -0) 
 At (0.825 , 0.375 , 0.05 )  Deviation = 0.0035747 Body force = (-0.0206244 , -5.76954 , -0) 
 At (0.875 , 0.375 , 0.05 )  Deviation = 0.00250273 Body force = (-0.010133 , -4.04877 , -0) 
 At (0.925 , 0.375 , 0.05 )  Deviation = 0.00200898 Body force = (-0.00654771 , -3.25922 , -0) 
 At (0.975 , 0.375 , 0.05 )  Deviation = 0.00181389 Body force = (-0.00535447 , -2.95193 , -0) 
 At (1.025 , 0.375 , 0.05 )  Deviation = 0.00176203 Body force = (-0.005069 , -2.87679 , -0) 
 At (1.075 , 0.375 , 0.05 )  Deviation = 0.00176832 Body force = (-0.00512145 , -2.89621 , -0) 
 At (1.125 , 0.375 , 0.05 )  Deviation = 0.00178787 Body force = (-0.00525081 , -2.9369 , -0) 
 At (1.175 , 0.375 , 0.05 )  Deviation = 0.00179952 Body force = (-0.00533351 , -2.96385 , -0) 
 At (1.225 , 0.375 , 0.05 )  Deviation = 0.00179656 Body force = (-0.00532802 , -2.96568 , -0) 
 At (1.275 , 0.375 , 0.05 )  Deviation = 0.00178014 Body force = (-0.00524094 , -2.94412 , -0) 
 At (1.325 , 0.375 , 0.05 )  Deviation = 0.00175368 Body force = (-0.00509409 , -2.90479 , -0) 
 At (1.375 , 0.375 , 0.05 )  Deviation = 0.00171814 Body force = (-0.00489516 , -2.84911 , -0) 
 At (1.425 , 0.375 , 0.05 )  Deviation = 0.00167865 Body force = (-0.00467639 , -2.7858 , -0) 
 At (1.475 , 0.375 , 0.05 )  Deviation = 0.00163791 Body force = (-0.00445396 , -2.7193 , -0) 
 At (1.525 , 0.375 , 0.05 )  Deviation = 10.1757 Body force = (0 , 0 , 0) 
 At (1.575 , 0.375 , 0.05 )  Deviation = -1.71959 Body force = (0 , 0 , 0) 
 At (1.625 , 0.375 , 0.05 )  Deviation = 0 Body force = (0 , 0 , 0) 
 At (1.675 , 0.375 , 0.05 )  Deviation = 10.1501 Body force = (0 , 0 , 0) 
 At (1.725 , 0.375 , 0.05 )  Deviation = -1.68755 Body force = (0 , 0 , 0) 
 At (1.775 , 0.375 , 0.05 )  Deviation = 0 Body force = (0 , 0 , 0) 
 At (1.825 , 0.375 , 0.05 )  Deviation = 9.99971 Body force = (0 , 0 , 0) 
 At (1.875 , 0.375 , 0.05 )  Deviation = 0.000262007 Body force = (0 , 0 , 0) 
 At (1.925 , 0.375 , 0.05 )  Deviation = 0 Body force = (0 , 0 , 0) 
 At (1.975 , 0.375 , 0.05 )  Deviation = 9.99889 Body force = (0 , 0 , 0) 
 At (0.025 , 0.425 , 0.05 )  Deviation = 0.000569838 Body force = (0 , 0 , 0) 
 At (0.075 , 0.425 , 0.05 )  Deviation = 0 Body force = (0 , 0 , 0) 
 At (0.125 , 0.425 , 0.05 )  Deviation = 9.99772 Body force = (0 , 0 , 0) 
 At (0.175 , 0.425 , 0.05 )  Deviation = 0.000868663 Body force = (0 , 0 , 0) 
 At (0.225 , 0.425 , 0.05 )  Deviation = 0 Body force = (0 , 0 , 0) 
 At (0.275 , 0.425 , 0.05 )  Deviation = 9.9965 Body force = (0 , 0 , 0) 
 At (0.325 , 0.425 , 0.05 )  Deviation = 0.00111487 Body force = (0 , 0 , 0) 
 At (0.375 , 0.425 , 0.05 )  Deviation = 0 Body force = (0 , 0 , 0) 
 At (0.425 , 0.425 , 0.05 )  Deviation = 9.99556 Body force = (0 , 0 , 0) 
 At (0.475 , 0.425 , 0.05 )  Deviation = 0.00128234 Body force = (0 , 0 , 0) 
 At (0.525 , 0.425 , 0.05 )  Deviation = 0.097993 Body force = (-15.103 , -153.63 , -0) 
 At (0.575 , 0.425 , 0.05 )  Deviation = 0.0549987 Body force = (-4.82049 , -87.559 , -0) 
 At (0.625 , 0.425 , 0.05 )  Deviation = 0.0308829 Body force = (-1.53109 , -49.5614 , -0) 
 At (0.675 , 0.425 , 0.05 )  Deviation = 0.0173339 Body force = (-0.48345 , -27.8877 , -0) 
 At (0.725 , 0.425 , 0.05 )  Deviation = 0.00980481 Body force = (-0.154781 , -15.7857 , -0) 
 At (0.775 , 0.425 , 0.05 )  Deviation = 0.00571671 Body force = (-0.0526623 , -9.21189 , -0) 
 At (0.825 , 0.425 , 0.05 )  Deviation = 0.00357143 Body force = (-0.0205868 , -5.76428 , -0) 
 At (0.875 , 0.425 , 0.05 )  Deviation = 0.0025006 Body force = (-0.0101158 , -4.04535 , -0) 
 At (0.925 , 0.425 , 0.05 )  Deviation = 0.0020078 Body force = (-0.00654005 , -3.25732 , -0) 
 At (0.975 , 0.425 , 0.05 )  Deviation = 0.00181344 Body force = (-0.00535186 , -2.95121 , -0) 
 At (1.025 , 0.425 , 0.05 )  Deviation = 0.00176213 Body force = (-0.00506962 , -2.87698 , -0) 
 At (1.075 , 0.425 , 0.05 )  Deviation = 0.00176886 Body force = (-0.00512457 , -2.8971 , -0) 
 At (1.125 , 0.425 , 0.05 )  Deviation = 0.00178881 Body force = (-0.00525629 , -2.93843 , -0) 
 At (1.175 , 0.425 , 0.05 )  Deviation = 0.00180087 Body force = (-0.00534148 , -2.96606 , -0) 
 At (1.225 , 0.425 , 0.05 )  Deviation = 0.00179834 Body force = (-0.00533858 , -2.96861 , -0) 
 At (1.275 , 0.425 , 0.05 )  Deviation = 0.00178231 Body force = (-0.00525373 , -2.9477 , -0) 
 At (1.325 , 0.425 , 0.05 )  Deviation = 0.00175611 Body force = (-0.00510818 , -2.9088 , -0) 
 At (1.375 , 0.425 , 0.05 )  Deviation = 0.00172059 Body force = (-0.00490912 , -2.85316 , -0) 
 At (1.425 , 0.425 , 0.05 )  Deviation = 0.00168085 Body force = (-0.00468864 , -2.78945 , -0) 
 At (1.475 , 0.425 , 0.05 )  Deviation = 0.00163955 Body force = (-0.00446291 , -2.72203 , -0) 
 At (1.525 , 0.425 , 0.05 )  Deviation = -1.20143 Body force = (0 , 0 , 0) 
 At (1.575 , 0.425 , 0.05 )  Deviation = 0 Body force = (0 , 0 , 0) 
 At (1.625 , 0.425 , 0.05 )  Deviation = 10.0043 Body force = (0 , 0 , 0) 
 At (1.675 , 0.425 , 0.05 )  Deviation = -1.44752 Body force = (0 , 0 , 0) 
 At (1.725 , 0.425 , 0.05 )  Deviation = 0 Body force = (0 , 0 , 0) 
 At (1.775 , 0.425 , 0.05 )  Deviation = 9.99238 Body force = (0 , 0 , 0) 
 At (1.825 , 0.425 , 0.05 )  Deviation = -1.58475 Body force = (0 , 0 , 0) 
 At (1.875 , 0.425 , 0.05 )  Deviation = 0 Body force = (0 , 0 , 0) 
 At (1.925 , 0.425 , 0.05 )  Deviation = 9.98119 Body force = (0 , 0 , 0) 
 At (1.975 , 0.425 , 0.05 )  Deviation = -1.66046 Body force = (0 , 0 , 0) 
 At (0.025 , 0.475 , 0.05 )  Deviation = 0 Body force = (0 , 0 , 0) 
 At (0.075 , 0.475 , 0.05 )  Deviation = 9.97822 Body force = (0 , 0 , 0) 
 At (0.125 , 0.475 , 0.05 )  Deviation = -1.70194 Body force = (0 , 0 , 0) 
 At (0.175 , 0.475 , 0.05 )  Deviation = 0 Body force = (0 , 0 , 0) 
 At (0.225 , 0.475 , 0.05 )  Deviation = 9.98432 Body force = (0 , 0 , 0) 
 At (0.275 , 0.475 , 0.05 )  Deviation = -1.72466 Body force = (0 , 0 , 0) 
 At (0.325 , 0.475 , 0.05 )  Deviation = 0 Body force = (0 , 0 , 0) 
 At (0.375 , 0.475 , 0.05 )  Deviation = 9.99757 Body force = (0 , 0 , 0) 
 At (0.425 , 0.475 , 0.05 )  Deviation = -1.73727 Body force = (0 , 0 , 0) 
 At (0.475 , 0.475 , 0.05 )  Deviation = 0 Body force = (0 , 0 , 0) 
 At (0.525 , 0.475 , 0.05 )  Deviation = 0.0979958 Body force = (-15.1039 , -153.634 , -0) 
 At (0.575 , 0.475 , 0.05 )  Deviation = 0.0549953 Body force = (-4.81989 , -87.5534 , -0) 
 At (0.625 , 0.475 , 0.05 )  Deviation = 0.0308768 Body force = (-1.53048 , -49.5516 , -0) 
 At (0.675 , 0.475 , 0.05 )  Deviation = 0.0173273 Body force = (-0.483083 , -27.8771 , -0) 
 At (0.725 , 0.475 , 0.05 )  Deviation = 0.00979889 Body force = (-0.154594 , -15.7761 , -0) 
 At (0.775 , 0.475 , 0.05 )  Deviation = 0.00571196 Body force = (-0.0525747 , -9.20423 , -0) 
 At (0.825 , 0.475 , 0.05 )  Deviation = 0.00356796 Body force = (-0.0205468 , -5.75868 , -0) 
 At (0.875 , 0.475 , 0.05 )  Deviation = 0.0024983 Body force = (-0.0100972 , -4.04162 , -0) 
 At (0.925 , 0.475 , 0.05 )  Deviation = 0.00200645 Body force = (-0.00653127 , -3.25514 , -0) 
 At (0.975 , 0.475 , 0.05 )  Deviation = 0.00181282 Body force = (-0.00534823 , -2.95022 , -0) 
 At (1.025 , 0.475 , 0.05 )  Deviation = 0.00176207 Body force = (-0.00506928 , -2.87688 , -0) 
 At (1.075 , 0.475 , 0.05 )  Deviation = 0.00176925 Body force = (-0.00512686 , -2.89775 , -0) 
 At (1.125 , 0.475 , 0.05 )  Deviation = 0.00178963 Body force = (-0.00526115 , -2.93979 , -0) 
 At (1.175 , 0.475 , 0.05 )  Deviation = 0.00180217 Body force = (-0.00534918 , -2.96819 , -0) 
 At (1.225 , 0.475 , 0.05 )  Deviation = 0.00180015 Body force = (-0.0053493 , -2.97158 , -0) 
 At (1.275 , 0.475 , 0.05 )  Deviation = 0.0017846 Body force = (-0.00526721 , -2.95147 , -0) 
 At (1.325 , 0.475 , 0.05 )  Deviation = 0.00175874 Body force = (-0.00512343 , -2.91313 , -0) 
 At (1.375 , 0.475 , 0.05 )  Deviation = 0.00172329 Body force = (-0.00492454 , -2.85763 , -0) 
 At (1.425 , 0.475 , 0.05 )  Deviation = 0.0016833 Body force = (-0.00470233 , -2.79351 , -0) 
 At (1.475 , 0.475 , 0.05 )  Deviation = 0.0016414 Body force = (-0.004473 , -2.72511 , -0) 
 At (1.525 , 0.475 , 0.05 )  Deviation = 0 Body force = (0 , 0 , 0) 
 At (1.575 , 0.475 , 0.05 )  Deviation = 10.1478 Body force = (0 , 0 , 0) 
 At (1.625 , 0.475 , 0.05 )  Deviation = -1.76284 Body force = (0 , 0 , 0) 
 At (1.675 , 0.475 , 0.05 )  Deviation = 0 Body force = (0 , 0 , 0) 
 At (1.725 , 0.475 , 0.05 )  Deviation = 10.1586 Body force = (0 , 0 , 0) 
 At (1.775 , 0.475 , 0.05 )  Deviation = -1.76436 Body force = (0 , 0 , 0) 
 At (1.825 , 0.475 , 0.05 )  Deviation = 0 Body force = (0 , 0 , 0) 
 At (1.875 , 0.475 , 0.05 )  Deviation = 10.1665 Body force = (0 , 0 , 0) 
 At (1.925 , 0.475 , 0.05 )  Deviation = -1.76565 Body force = (0 , 0 , 0) 
 At (1.975 , 0.475 , 0.05 )  Deviation = 0 Body force = (0 , 0 , 0) 
 At (0.025 , 0.525 , 0.05 )  Deviation = 10.1722 Body force = (0 , 0 , 0) 
 At (0.075 , 0.525 , 0.05 )  Deviation = -1.76674 Body force = (0 , 0 , 0) 
 At (0.125 , 0.525 , 0.05 )  Deviation = 0 Body force = (0 , 0 , 0) 
 At (0.175 , 0.525 , 0.05 )  Deviation = 10.1753 Body force = (0 , 0 , 0) 
 At (0.225 , 0.525 , 0.05 )  Deviation = -1.76754 Body force = (0 , 0 , 0) 
 At (0.275 , 0.525 , 0.05 )  Deviation = 0 Body force = (0 , 0 , 0) 
 At (0.325 , 0.525 , 0.05 )  Deviation = 10.178 Body force = (0 , 0 , 0) 
 At (0.375 , 0.525 , 0.05 )  Deviation = -1.75258 Body force = (0 , 0 , 0) 
 At (0.425 , 0.525 , 0.05 )  Deviation = 0 Body force = (0 , 0 , 0) 
 At (0.475 , 0.525 , 0.05 )  Deviation = 10.1886 Body force = (0 , 0 , 0) 
 At (0.525 , 0.525 , 0.05 )  Deviation = 0.097999 Body force = (-15.1048 , -153.638 , -0) 
 At (0.575 , 0.525 , 0.05 )  Deviation = 0.0549919 Body force = (-4.81927 , -87.5475 , -0) 
 At (0.625 , 0.525 , 0.05 )  Deviation = 0.0308707 Body force = (-1.52986 , -49.5415 , -0) 
 At (0.675 , 0.525 , 0.05 )  Deviation = 0.0173206 Body force = (-0.482709 , -27.8662 , -0) 
 At (0.725 , 0.525 , 0.05 )  Deviation = 0.00979291 Body force = (-0.154404 , -15.7665 , -0) 
 At (0.775 , 0.525 , 0.05 )  Deviation = 0.00570717 Body force = (-0.0524865 , -9.1965 , -0) 
 At (0.825 , 0.525 , 0.05 )  Deviation = 0.00356446 Body force = (-0.0205066 , -5.75303 , -0) 
 At (0.875 , 0.525 , 0.05 )  Deviation = 0.00249595 Body force = (-0.0100783 , -4.03784 , -0) 
 At (0.925 , 0.525 , 0.05 )  Deviation = 0.00200502 Body force = (-0.00652202 , -3.25283 , -0) 
 At (0.975 , 0.525 , 0.05 )  Deviation = 0.00181209 Body force = (-0.00534391 , -2.94903 , -0) 
 At (1.025 , 0.525 , 0.05 )  Deviation = 0.00176186 Body force = (-0.00506804 , -2.87653 , -0) 
 At (1.075 , 0.525 , 0.05 )  Deviation = 0.00176948 Body force = (-0.00512814 , -2.89811 , -0) 
 At (1.125 , 0.525 , 0.05 )  Deviation = 0.0017903 Body force = (-0.00526504 , -2.94087 , -0) 
 At (1.175 , 0.525 , 0.05 )  Deviation = 0.00180334 Body force = (-0.0053561 , -2.9701 , -0) 
 At (1.225 , 0.525 , 0.05 )  Deviation = 0.00180188 Body force = (-0.00535956 , -2.97442 , -0) 
 At (1.275 , 0.525 , 0.05 )  Deviation = 0.00178688 Body force = (-0.00528064 , -2.95522 , -0) 
 At (1.325 , 0.525 , 0.05 )  Deviation = 0.00176142 Body force = (-0.00513907 , -2.91756 , -0) 
 At (1.375 , 0.525 , 0.05 )  Deviation = 0.00172612 Body force = (-0.0049407 , -2.86231 , -0) 
 At (1.425 , 0.525 , 0.05 )  Deviation = 0.00168591 Body force = (-0.00471691 , -2.79784 , -0) 
 At (1.475 , 0.525 , 0.05 )  Deviation = 0.00164339 Body force = (-0.00448386 , -2.72842 , -0) 
 At (1.525 , 0.525 , 0.05 )  Deviation = 10.1756 Body force = (0 , 0 , 0) 
 At (1.575 , 0.525 , 0.05 )  Deviation = -1.71948 Body force = (0 , 0 , 0) 
 At (1.625 , 0.525 , 0.05 )  Deviation = 0 Body force = (0 , 0 , 0) 
 At (1.675 , 0.525 , 0.05 )  Deviation = 10.1502 Body force = (0 , 0 , 0) 
 At (1.725 , 0.525 , 0.05 )  Deviation = -1.68748 Body force = (0 , 0 , 0) 
 At (1.775 , 0.525 , 0.05 )  Deviation = 0 Body force = (0 , 0 , 0) 
 At (1.825 , 0.525 , 0.05 )  Deviation = 9.99971 Body force = (0 , 0 , 0) 
 At (1.875 , 0.525 , 0.05 )  Deviation = 0.000274243 Body force = (0 , 0 , 0) 
 At (1.925 , 0.525 , 0.05 )  Deviation = 0 Body force = (0 , 0 , 0) 
 At (1.975 , 0.525 , 0.05 )  Deviation = 9.99888 Body force = (0 , 0 , 0) 
 At (0.025 , 0.575 , 0.05 )  Deviation = 0.00059346 Body force = (0 , 0 , 0) 
 At (0.075 , 0.575 , 0.05 )  Deviation = 0 Body force = (0 , 0 , 0) 
 At (0.125 , 0.575 , 0.05 )  Deviation = 9.9977 Body force = (0 , 0 , 0) 
 At (0.175 , 0.575 , 0.05 )  Deviation = 0.000894866 Body force = (0 , 0 , 0) 
 At (0.225 , 0.575 , 0.05 )  Deviation = 0 Body force = (0 , 0 , 0) 
 At (0.275 , 0.575 , 0.05 )  Deviation = 9.99647 Body force = (0 , 0 , 0) 
 At (0.325 , 0.575 , 0.05 )  Deviation = 0.00114328 Body force = (0 , 0 , 0) 
 At (0.375 , 0.575 , 0.05 )  Deviation = 0 Body force = (0 , 0 , 0) 
 At (0.425 , 0.575 , 0.05 )  Deviation = 9.99549 Body force = (0 , 0 , 0) 
 At (0.475 , 0.575 , 0.05 )  Deviation = 0.00130259 Body force = (0 , 0 , 0) 
 At (0.525 , 0.575 , 0.05 )  Deviation = 0.0980023 Body force = (-15.1057 , -153.642 , -0) 
 At (0.575 , 0.575 , 0.05 )  Deviation = 0.0549886 Body force = (-4.81865 , -87.5416 , -0) 
 At (0.625 , 0.575 , 0.05 )  Deviation = 0.0308647 Body force = (-1.52926 , -49.5315 , -0) 
 At (0.675 , 0.575 , 0.05 )  Deviation = 0.0173142 Body force = (-0.482348 , -27.8557 , -0) 
 At (0.725 , 0.575 , 0.05 )  Deviation = 0.00978721 Body force = (-0.154224 , -15.7572 , -0) 
 At (0.775 , 0.575 , 0.05 )  Deviation = 0.00570266 Body force = (-0.0524034 , -9.1892 , -0) 
 At (0.825 , 0.575 , 0.05 )  Deviation = 0.0035612 Body force = (-0.0204689 , -5.74774 , -0) 
 At (0.875 , 0.575 , 0.05 )  Deviation = 0.00249375 Body force = (-0.0100605 , -4.03427 , -0) 
 At (0.925 , 0.575 , 0.05 )  Deviation = 0.00200364 Body force = (-0.00651303 , -3.25059 , -0) 
 At (0.975 , 0.575 , 0.05 )  Deviation = 0.0018113 Body force = (-0.00533922 , -2.94773 , -0) 
 At (1.025 , 0.575 , 0.05 )  Deviation = 0.0017615 Body force = (-0.00506596 , -2.87594 , -0) 
 At (1.075 , 0.575 , 0.05 )  Deviation = 0.00176949 Body force = (-0.00512822 , -2.89813 , -0) 
 At (1.125 , 0.575 , 0.05 )  Deviation = 0.00179074 Body force = (-0.00526764 , -2.9416 , -0) 
 At (1.175 , 0.575 , 0.05 )  Deviation = 0.0018043 Body force = (-0.00536184 , -2.97169 , -0) 
 At (1.225 , 0.575 , 0.05 )  Deviation = 0.00180347 Body force = (-0.00536902 , -2.97704 , -0) 
 At (1.275 , 0.575 , 0.05 )  Deviation = 0.0017891 Body force = (-0.00529373 , -2.95888 , -0) 
 At (1.325 , 0.575 , 0.05 )  Deviation = 0.00176413 Body force = (-0.00515488 , -2.92205 , -0) 
 At (1.375 , 0.575 , 0.05 )  Deviation = 0.00172903 Body force = (-0.00495736 , -2.86714 , -0) 
 At (1.425 , 0.575 , 0.05 )  Deviation = 0.00168863 Body force = (-0.00473214 , -2.80236 , -0) 
 At (1.475 , 0.575 , 0.05 )  Deviation = 0.00164546 Body force = (-0.00449519 , -2.73187 , -0) 
 At (1.525 , 0.575 , 0.05 )  Deviation = -1.20135 Body force = (0 , 0 , 0) 
 At (1.575 , 0.575 , 0.05 )  Deviation = 0 Body force = (0 , 0 , 0) 
 At (1.625 , 0.575 , 0.05 )  Deviation = 10.0042 Body force = (0 , 0 , 0) 
 At (1.675 , 0.575 , 0.05 )  Deviation = -1.44744 Body force = (0 , 0 , 0) 
 At (1.725 , 0.575 , 0.05 )  Deviation = 0 Body force = (0 , 0 , 0) 
 At (1.775 , 0.575 , 0.05 )  Deviation = 9.99229 Body force = (0 , 0 , 0) 
 At (1.825 , 0.575 , 0.05 )  Deviation = -1.58465 Body force = (0 , 0 , 0) 
 At (1.875 , 0.575 , 0.05 )  Deviation = 0 Body force = (0 , 0 , 0) 
 At (1.925 , 0.575 , 0.05 )  Deviation = 9.9811 Body force = (0 , 0 , 0) 
 At (1.975 , 0.575 , 0.05 )  Deviation = -1.66036 Body force = (0 , 0 , 0) 
 At (0.025 , 0.625 , 0.05 )  Deviation = 0 Body force = (0 , 0 , 0) 
 At (0.075 , 0.625 , 0.05 )  Deviation = 9.97812 Body force = (0 , 0 , 0) 
 At (0.125 , 0.625 , 0.05 )  Deviation = -1.70185 Body force = (0 , 0 , 0) 
 At (0.175 , 0.625 , 0.05 )  Deviation = 0 Body force = (0 , 0 , 0) 
 At (0.225 , 0.625 , 0.05 )  Deviation = 9.98422 Body force = (0 , 0 , 0) 
 At (0.275 , 0.625 , 0.05 )  Deviation = -1.7246 Body force = (0 , 0 , 0) 
 At (0.325 , 0.625 , 0.05 )  Deviation = 0 Body force = (0 , 0 , 0) 
 At (0.375 , 0.625 , 0.05 )  Deviation = 9.99748 Body force = (0 , 0 , 0) 
 At (0.425 , 0.625 , 0.05 )  Deviation = -1.73724 Body force = (0 , 0 , 0) 
 At (0.475 , 0.625 , 0.05 )  Deviation = 0 Body force = (0 , 0 , 0) 
 At (0.525 , 0.625 , 0.05 )  Deviation = 0.0980052 Body force = (-15.1064 , -153.645 , -0) 
 At (0.575 , 0.625 , 0.05 )  Deviation = 0.0549856 Body force = (-4.81807 , -87.5359 , -0) 
 At (0.625 , 0.625 , 0.05 )  Deviation = 0.0308593 Body force = (-1.52871 , -49.5224 , -0) 
 At (0.675 , 0.625 , 0.05 )  Deviation = 0.0173085 Body force = (-0.482024 , -27.8463 , -0) 
 At (0.725 , 0.625 , 0.05 )  Deviation = 0.00978217 Body force = (-0.154064 , -15.749 , -0) 
 At (0.775 , 0.625 , 0.05 )  Deviation = 0.00569871 Body force = (-0.0523307 , -9.1828 , -0) 
 At (0.825 , 0.625 , 0.05 )  Deviation = 0.00355836 Body force = (-0.0204362 , -5.74314 , -0) 
 At (0.875 , 0.625 , 0.05 )  Deviation = 0.00249183 Body force = (-0.0100449 , -4.03114 , -0) 
 At (0.925 , 0.625 , 0.05 )  Deviation = 0.00200239 Body force = (-0.00650483 , -3.24854 , -0) 
 At (0.975 , 0.625 , 0.05 )  Deviation = 0.00181048 Body force = (-0.00533441 , -2.9464 , -0) 
 At (1.025 , 0.625 , 0.05 )  Deviation = 0.001761 Body force = (-0.00506312 , -2.87513 , -0) 
 At (1.075 , 0.625 , 0.05 )  Deviation = 0.00176932 Body force = (-0.00512721 , -2.89784 , -0) 
 At (1.125 , 0.625 , 0.05 )  Deviation = 0.00179098 Body force = (-0.00526905 , -2.94198 , -0) 
 At (1.175 , 0.625 , 0.05 )  Deviation = 0.00180512 Body force = (-0.00536665 , -2.97302 , -0) 
 At (1.225 , 0.625 , 0.05 )  Deviation = 0.00180498 Body force = (-0.00537796 , -2.97952 , -0) 
 At (1.275 , 0.625 , 0.05 )  Deviation = 0.00179131 Body force = (-0.00530682 , -2.96254 , -0) 
 At (1.325 , 0.625 , 0.05 )  Deviation = 0.00176688 Body force = (-0.00517099 , -2.92661 , -0) 
 At (1.375 , 0.625 , 0.05 )  Deviation = 0.00173201 Body force = (-0.00497447 , -2.87209 , -0) 
 At (1.425 , 0.625 , 0.05 )  Deviation = 0.00169138 Body force = (-0.00474763 , -2.80695 , -0) 
 At (1.475 , 0.625 , 0.05 )  Deviation = 0.00164754 Body force = (-0.00450661 , -2.73535 , -0) 
 At (1.525 , 0.625 , 0.05 )  Deviation = 0 Body force = (0 , 0 , 0) 
 At (1.575 , 0.625 , 0.05 )  Deviation = 10.1479 Body force = (0 , 0 , 0) 
 At (1.625 , 0.625 , 0.05 )  Deviation = -1.76285 Body force = (0 , 0 , 0) 
 At (1.675 , 0.625 , 0.05 )  Deviation = 0 Body force = (0 , 0 , 0) 
 At (1.725 , 0.625 , 0.05 )  Deviation = 10.1586 Body force = (0 , 0 , 0) 
 At (1.775 , 0.625 , 0.05 )  Deviation = -1.76437 Body force = (0 , 0 , 0) 
 At (1.825 , 0.625 , 0.05 )  Deviation = 0 Body force = (0 , 0 , 0) 
 At (1.875 , 0.625 , 0.05 )  Deviation = 10.1666 Body force = (0 , 0 , 0) 
 At (1.925 , 0.625 , 0.05 )  Deviation = -1.76567 Body force = (0 , 0 , 0) 
 At (1.975 , 0.625 , 0.05 )  Deviation = 0 Body force = (0 , 0 , 0) 
 At (0.025 , 0.675 , 0.05 )  Deviation = 10.1723 Body force = (0 , 0 , 0) 
 At (0.075 , 0.675 , 0.05 )  Deviation = -1.76676 Body force = (0 , 0 , 0) 
 At (0.125 , 0.675 , 0.05 )  Deviation = 0 Body force = (0 , 0 , 0) 
 At (0.175 , 0.675 , 0.05 )  Deviation = 10.1753 Body force = (0 , 0 , 0) 
 At (0.225 , 0.675 , 0.05 )  Deviation = -1.76757 Body force = (0 , 0 , 0) 
 At (0.275 , 0.675 , 0.05 )  Deviation = 0 Body force = (0 , 0 , 0) 
 At (0.325 , 0.675 , 0.05 )  Deviation = 10.178 Body force = (0 , 0 , 0) 
 At (0.375 , 0.675 , 0.05 )  Deviation = -1.75263 Body force = (0 , 0 , 0) 
 At (0.425 , 0.675 , 0.05 )  Deviation = 0 Body force = (0 , 0 , 0) 
 At (0.475 , 0.675 , 0.05 )  Deviation = 10.1887 Body force = (0 , 0 , 0) 
 At (0.525 , 0.675 , 0.05 )  Deviation = 0.0980068 Body force = (-15.1067 , -153.646 , -0) 
 At (0.575 , 0.675 , 0.05 )  Deviation = 0.0549824 Body force = (-4.81745 , -87.5299 , -0) 
 At (0.625 , 0.675 , 0.05 )  Deviation = 0.0308543 Body force = (-1.52821 , -49.514 , -0) 
 At (0.675 , 0.675 , 0.05 )  Deviation = 0.0173035 Body force = (-0.481742 , -27.838 , -0) 
 At (0.725 , 0.675 , 0.05 )  Deviation = 0.00977788 Body force = (-0.153928 , -15.742 , -0) 
 At (0.775 , 0.675 , 0.05 )  Deviation = 0.00569542 Body force = (-0.05227 , -9.17744 , -0) 
 At (0.825 , 0.675 , 0.05 )  Deviation = 0.00355601 Body force = (-0.0204092 , -5.73932 , -0) 
 At (0.875 , 0.675 , 0.05 )  Deviation = 0.00249025 Body force = (-0.0100321 , -4.02856 , -0) 
 At (0.925 , 0.675 , 0.05 )  Deviation = 0.00200131 Body force = (-0.0064978 , -3.24677 , -0) 
 At (0.975 , 0.675 , 0.05 )  Deviation = 0.00180974 Body force = (-0.00533 , -2.94517 , -0) 
 At (1.025 , 0.675 , 0.05 )  Deviation = 0.00176049 Body force = (-0.00506016 , -2.87428 , -0) 
 At (1.075 , 0.675 , 0.05 )  Deviation = 0.0017691 Body force = (-0.0051259 , -2.89746 , -0) 
 At (1.125 , 0.675 , 0.05 )  Deviation = 0.00179119 Body force = (-0.00527023 , -2.94231 , -0) 
 At (1.175 , 0.675 , 0.05 )  Deviation = 0.00180596 Body force = (-0.00537163 , -2.97439 , -0) 
 At (1.225 , 0.675 , 0.05 )  Deviation = 0.00180658 Body force = (-0.00538753 , -2.98217 , -0) 
 At (1.275 , 0.675 , 0.05 )  Deviation = 0.00179368 Body force = (-0.00532088 , -2.96646 , -0) 
 At (1.325 , 0.675 , 0.05 )  Deviation = 0.00176978 Body force = (-0.00518799 , -2.93142 , -0) 
 At (1.375 , 0.675 , 0.05 )  Deviation = 0.00173503 Body force = (-0.00499189 , -2.87712 , -0) 
 At (1.425 , 0.675 , 0.05 )  Deviation = 0.00169405 Body force = (-0.00476268 , -2.81141 , -0) 
 At (1.475 , 0.675 , 0.05 )  Deviation = 0.00164952 Body force = (-0.00451749 , -2.73866 , -0) 
 At (1.525 , 0.675 , 0.05 )  Deviation = 10.1756 Body force = (0 , 0 , 0) 
 At (1.575 , 0.675 , 0.05 )  Deviation = -1.71969 Body force = (0 , 0 , 0) 
 At (1.625 , 0.675 , 0.05 )  Deviation = 0 Body force = (0 , 0 , 0) 
 At (1.675 , 0.675 , 0.05 )  Deviation = 10.1501 Body force = (0 , 0 , 0) 
 At (1.725 , 0.675 , 0.05 )  Deviation = -1.68771 Body force = (0 , 0 , 0) 
 At (1.775 , 0.675 , 0.05 )  Deviation = 0 Body force = (0 , 0 , 0) 
 At (1.825 , 0.675 , 0.05 )  Deviation = 9.99971 Body force = (0 , 0 , 0) 
 At (1.875 , 0.675 , 0.05 )  Deviation = 0.000261553 Body force = (0 , 0 , 0) 
 At (1.925 , 0.675 , 0.05 )  Deviation = 0 Body force = (0 , 0 , 0) 
 At (1.975 , 0.675 , 0.05 )  Deviation = 9.99887 Body force = (0 , 0 , 0) 
 At (0.025 , 0.725 , 0.05 )  Deviation = 0.000549867 Body force = (0 , 0 , 0) 
 At (0.075 , 0.725 , 0.05 )  Deviation = 0 Body force = (0 , 0 , 0) 
 At (0.125 , 0.725 , 0.05 )  Deviation = 9.99768 Body force = (0 , 0 , 0) 
 At (0.175 , 0.725 , 0.05 )  Deviation = 0.000818386 Body force = (0 , 0 , 0) 
 At (0.225 , 0.725 , 0.05 )  Deviation = 0 Body force = (0 , 0 , 0) 
 At (0.275 , 0.725 , 0.05 )  Deviation = 9.99642 Body force = (0 , 0 , 0) 
 At (0.325 , 0.725 , 0.05 )  Deviation = 0.00102066 Body force = (0 , 0 , 0) 
 At (0.375 , 0.725 , 0.05 )  Deviation = 0 Body force = (0 , 0 , 0) 
 At (0.425 , 0.725 , 0.05 )  Deviation = 9.99542 Body force = (0 , 0 , 0) 
 At (0.475 , 0.725 , 0.05 )  Deviation = 0.00114104 Body force = (0 , 0 , 0) 
 At (0.525 , 0.725 , 0.05 )  Deviation = 0.0980068 Body force = (-15.1066 , -153.644 , -0) 
 At (0.575 , 0.725 , 0.05 )  Deviation = 0.0549791 Body force = (-4.81683 , -87.5237 , -0) 
 At (0.625 , 0.725 , 0.05 )  Deviation = 0.0308501 Body force = (-1.52777 , -49.5067 , -0) 
 At (0.675 , 0.725 , 0.05 )  Deviation = 0.0172992 Body force = (-0.481501 , -27.8309 , -0) 
 At (0.725 , 0.725 , 0.05 )  Deviation = 0.00977421 Body force = (-0.153812 , -15.736 , -0) 
 At (0.775 , 0.725 , 0.05 )  Deviation = 0.00569247 Body force = (-0.0522154 , -9.17263 , -0) 
 At (0.825 , 0.725 , 0.05 )  Deviation = 0.00355379 Body force = (-0.0203836 , -5.73571 , -0) 
 At (0.875 , 0.725 , 0.05 )  Deviation = 0.00248857 Body force = (-0.0100186 , -4.02583 , -0) 
 At (0.925 , 0.725 , 0.05 )  Deviation = 0.00200008 Body force = (-0.00648983 , -3.24477 , -0) 
 At (0.975 , 0.725 , 0.05 )  Deviation = 0.0018088 Body force = (-0.00532443 , -2.94362 , -0) 
 At (1.025 , 0.725 , 0.05 )  Deviation = 0.00175988 Body force = (-0.00505659 , -2.87326 , -0) 
 At (1.075 , 0.725 , 0.05 )  Deviation = 0.00176884 Body force = (-0.00512438 , -2.89703 , -0) 
 At (1.125 , 0.725 , 0.05 )  Deviation = 0.00179152 Body force = (-0.00527219 , -2.94285 , -0) 
 At (1.175 , 0.725 , 0.05 )  Deviation = 0.00180703 Body force = (-0.005378 , -2.97615 , -0) 
 At (1.225 , 0.725 , 0.05 )  Deviation = 0.00180853 Body force = (-0.00539919 , -2.98539 , -0) 
 At (1.275 , 0.725 , 0.05 )  Deviation = 0.00179635 Body force = (-0.00533675 , -2.97089 , -0) 
 At (1.325 , 0.725 , 0.05 )  Deviation = 0.00177284 Body force = (-0.00520597 , -2.93651 , -0) 
 At (1.375 , 0.725 , 0.05 )  Deviation = 0.00173789 Body force = (-0.00500841 , -2.88189 , -0) 
 At (1.425 , 0.725 , 0.05 )  Deviation = 0.00169638 Body force = (-0.0047758 , -2.81529 , -0) 
 At (1.475 , 0.725 , 0.05 )  Deviation = 0.00165103 Body force = (-0.00452579 , -2.74119 , -0) 
 At (1.525 , 0.725 , 0.05 )  Deviation = -1.20141 Body force = (0 , 0 , 0) 
 At (1.575 , 0.725 , 0.05 )  Deviation = 0 Body force = (0 , 0 , 0) 
 At (1.625 , 0.725 , 0.05 )  Deviation = 10.0042 Body force = (0 , 0 , 0) 
 At (1.675 , 0.725 , 0.05 )  Deviation = -1.44742 Body force = (0 , 0 , 0) 
 At (1.725 , 0.725 , 0.05 )  Deviation = 0 Body force = (0 , 0 , 0) 
 At (1.775 , 0.725 , 0.05 )  Deviation = 9.99227 Body force = (0 , 0 , 0) 
 At (1.825 , 0.725 , 0.05 )  Deviation = -1.58456 Body force = (0 , 0 , 0) 
 At (1.875 , 0.725 , 0.05 )  Deviation = 0 Body force = (0 , 0 , 0) 
 At (1.925 , 0.725 , 0.05 )  Deviation = 9.98105 Body force = (0 , 0 , 0) 
 At (1.975 , 0.725 , 0.05 )  Deviation = -1.66021 Body force = (0 , 0 , 0) 
 At (0.025 , 0.775 , 0.05 )  Deviation = 0 Body force = (0 , 0 , 0) 
 At (0.075 , 0.775 , 0.05 )  Deviation = 9.97805 Body force = (0 , 0 , 0) 
 At (0.125 , 0.775 , 0.05 )  Deviation = -1.70168 Body force = (0 , 0 , 0) 
 At (0.175 , 0.775 , 0.05 )  Deviation = 0 Body force = (0 , 0 , 0) 
 At (0.225 , 0.775 , 0.05 )  Deviation = 9.98413 Body force = (0 , 0 , 0) 
 At (0.275 , 0.775 , 0.05 )  Deviation = -1.72443 Body force = (0 , 0 , 0) 
 At (0.325 , 0.775 , 0.05 )  Deviation = 0 Body force = (0 , 0 , 0) 
 At (0.375 , 0.775 , 0.05 )  Deviation = 9.99738 Body force = (0 , 0 , 0) 
 At (0.425 , 0.775 , 0.05 )  Deviation = -1.73712 Body force = (0 , 0 , 0) 
 At (0.475 , 0.775 , 0.05 )  Deviation = 0 Body force = (0 , 0 , 0) 
 At (0.525 , 0.775 , 0.05 )  Deviation = 0.0980081 Body force = (-15.1068 , -153.644 , -0) 
 At (0.575 , 0.775 , 0.05 )  Deviation = 0.054978 Body force = (-4.81659 , -87.521 , -0) 
 At (0.625 , 0.775 , 0.05 )  Deviation = 0.030848 Body force = (-1.52754 , -49.5028 , -0) 
 At (0.675 , 0.775 , 0.05 )  Deviation = 0.0172967 Body force = (-0.481359 , -27.8267 , -0) 
 At (0.725 , 0.775 , 0.05 )  Deviation = 0.00977153 Body force = (-0.153726 , -15.7315 , -0) 
 At (0.775 , 0.775 , 0.05 )  Deviation = 0.00568977 Body force = (-0.0521656 , -9.16822 , -0) 
 At (0.825 , 0.775 , 0.05 )  Deviation = 0.00355109 Body force = (-0.0203525 , -5.73131 , -0) 
 At (0.875 , 0.775 , 0.05 )  Deviation = 0.0024861 Body force = (-0.00999862 , -4.02181 , -0) 
 At (0.925 , 0.775 , 0.05 )  Deviation = 0.00199783 Body force = (-0.00647517 , -3.2411 , -0) 
 At (0.975 , 0.775 , 0.05 )  Deviation = 0.00180701 Body force = (-0.00531388 , -2.9407 , -0) 
 At (1.025 , 0.775 , 0.05 )  Deviation = 0.00175855 Body force = (-0.00504894 , -2.87107 , -0) 
 At (1.075 , 0.775 , 0.05 )  Deviation = 0.00176827 Body force = (-0.00512106 , -2.89608 , -0) 
 At (1.125 , 0.775 , 0.05 )  Deviation = 0.00179176 Body force = (-0.00527353 , -2.94322 , -0) 
 At (1.175 , 0.775 , 0.05 )  Deviation = 0.0018083 Body force = (-0.00538557 , -2.97825 , -0) 
 At (1.225 , 0.775 , 0.05 )  Deviation = 0.00181069 Body force = (-0.00541211 , -2.98897 , -0) 
 At (1.275 , 0.775 , 0.05 )  Deviation = 0.00179921 Body force = (-0.00535379 , -2.97564 , -0) 
 At (1.325 , 0.775 , 0.05 )  Deviation = 0.00177565 Body force = (-0.00522252 , -2.94119 , -0) 
 At (1.375 , 0.775 , 0.05 )  Deviation = 0.00174012 Body force = (-0.00502134 , -2.88562 , -0) 
 At (1.425 , 0.775 , 0.05 )  Deviation = 0.00169755 Body force = (-0.00478248 , -2.81727 , -0) 
 At (1.475 , 0.775 , 0.05 )  Deviation = 0.00165143 Body force = (-0.00452806 , -2.74189 , -0) 
 At (1.525 , 0.775 , 0.05 )  Deviation = 0 Body force = (0 , 0 , 0) 
 At (1.575 , 0.775 , 0.05 )  Deviation = 10.148 Body force = (0 , 0 , 0) 
 At (1.625 , 0.775 , 0.05 )  Deviation = -1.76288 Body force = (0 , 0 , 0) 
 At (1.675 , 0.775 , 0.05 )  Deviation = 0 Body force = (0 , 0 , 0) 
 At (1.725 , 0.775 , 0.05 )  Deviation = 10.1587 Body force = (0 , 0 , 0) 
 At (1.775 , 0.775 , 0.05 )  Deviation = -1.76439 Body force = (0 , 0 , 0) 
 At (1.825 , 0.775 , 0.05 )  Deviation = 0 Body force = (0 , 0 , 0) 
 At (1.875 , 0.775 , 0.05 )  Deviation = 10.1667 Body force = (0 , 0 , 0) 
 At (1.925 , 0.775 , 0.05 )  Deviation = -1.76569 Body force = (0 , 0 , 0) 
 At (1.975 , 0.775 , 0.05 )  Deviation = 0 Body force = (0 , 0 , 0) 
 At (0.025 , 0.825 , 0.05 )  Deviation = 10.1723 Body force = (0 , 0 , 0) 
 At (0.075 , 0.825 , 0.05 )  Deviation = -1.76676 Body force = (0 , 0 , 0) 
 At (0.125 , 0.825 , 0.05 )  Deviation = 0 Body force = (0 , 0 , 0) 
 At (0.175 , 0.825 , 0.05 )  Deviation = 10.1753 Body force = (0 , 0 , 0) 
 At (0.225 , 0.825 , 0.05 )  Deviation = -1.76753 Body force = (0 , 0 , 0) 
 At (0.275 , 0.825 , 0.05 )  Deviation = 0 Body force = (0 , 0 , 0) 
 At (0.325 , 0.825 , 0.05 )  Deviation = 10.178 Body force = (0 , 0 , 0) 
 At (0.375 , 0.825 , 0.05 )  Deviation = -1.75258 Body force = (0 , 0 , 0) 
 At (0.425 , 0.825 , 0.05 )  Deviation = 0 Body force = (0 , 0 , 0) 
 At (0.475 , 0.825 , 0.05 )  Deviation = 10.1886 Body force = (0 , 0 , 0) 
 At (0.525 , 0.825 , 0.05 )  Deviation = 0.0980161 Body force = (-15.1091 , -153.655 , -0) 
 At (0.575 , 0.825 , 0.05 )  Deviation = 0.0549831 Body force = (-4.81743 , -87.5281 , -0) 
 At (0.625 , 0.825 , 0.05 )  Deviation = 0.0308513 Body force = (-1.52785 , -49.5075 , -0) 
 At (0.675 , 0.825 , 0.05 )  Deviation = 0.0172988 Body force = (-0.481467 , -27.8296 , -0) 
 At (0.725 , 0.825 , 0.05 )  Deviation = 0.00977215 Body force = (-0.153744 , -15.7323 , -0) 
 At (0.775 , 0.825 , 0.05 )  Deviation = 0.00568913 Body force = (-0.0521532 , -9.16707 , -0) 
 At (0.825 , 0.825 , 0.05 )  Deviation = 0.00354921 Body force = (-0.0203307 , -5.72822 , -0) 
 At (0.875 , 0.825 , 0.05 )  Deviation = 0.00248344 Body force = (-0.00997717 , -4.01747 , -0) 
 At (0.925 , 0.825 , 0.05 )  Deviation = 0.0019948 Body force = (-0.00645549 , -3.23615 , -0) 
 At (0.975 , 0.825 , 0.05 )  Deviation = 0.00180408 Body force = (-0.00529663 , -2.93591 , -0) 
 At (1.025 , 0.825 , 0.05 )  Deviation = 0.00175616 Body force = (-0.00503519 , -2.86715 , -0) 
 At (1.075 , 0.825 , 0.05 )  Deviation = 0.00176669 Body force = (-0.00511185 , -2.89346 , -0) 
 At (1.125 , 0.825 , 0.05 )  Deviation = 0.00179129 Body force = (-0.00527077 , -2.94244 , -0) 
 At (1.175 , 0.825 , 0.05 )  Deviation = 0.00180889 Body force = (-0.00538912 , -2.97923 , -0) 
 At (1.225 , 0.825 , 0.05 )  Deviation = 0.0018123 Body force = (-0.00542174 , -2.99163 , -0) 
 At (1.275 , 0.825 , 0.05 )  Deviation = 0.00180111 Body force = (-0.00536515 , -2.97881 , -0) 
 At (1.325 , 0.825 , 0.05 )  Deviation = 0.00177728 Body force = (-0.00523217 , -2.94392 , -0) 
 At (1.375 , 0.825 , 0.05 )  Deviation = 0.00174071 Body force = (-0.00502477 , -2.88662 , -0) 
 At (1.425 , 0.825 , 0.05 )  Deviation = 0.00169703 Body force = (-0.00477959 , -2.81644 , -0) 
 At (1.475 , 0.825 , 0.05 )  Deviation = 0.00164999 Body force = (-0.00452016 , -2.73951 , -0) 
 At (1.525 , 0.825 , 0.05 )  Deviation = 10.1755 Body force = (0 , 0 , 0) 
 At (1.575 , 0.825 , 0.05 )  Deviation = -1.72047 Body force = (0 , 0 , 0) 
 At (1.625 , 0.825 , 0.05 )  Deviation = 0 Body force = (0 , 0 , 0) 
 At (1.675 , 0.825 , 0.05 )  Deviation = 10.15 Body force = (0 , 0 , 0) 
 At (1.725 , 0.825 , 0.05 )  Deviation = -1.68844 Body force = (0 , 0 , 0) 
 At (1.775 , 0.825 , 0.05 )  Deviation = 0 Body force = (0 , 0 , 0) 
 At (1.825 , 0.825 , 0.05 )  Deviation = 9.9997 Body force = (0 , 0 , 0) 
 At (1.875 , 0.825 , 0.05 )  Deviation = 0.000202653 Body force = (0 , 0 , 0) 
 At (1.925 , 0.825 , 0.05 )  Deviation = 0 Body force = (0 , 0 , 0) 
 At (1.975 , 0.825 , 0.05 )  Deviation = 9.99886 Body force = (0 , 0 , 0) 
 At (0.025 , 0.875 , 0.05 )  Deviation = 0.000418699 Body force = (0 , 0 , 0) 
 At (0.075 , 0.875 , 0.05 )  Deviation = 0 Body force = (0 , 0 , 0) 
 At (0.125 , 0.875 , 0.05 )  Deviation = 9.99765 Body force = (0 , 0 , 0) 
 At (0.175 , 0.875 , 0.05 )  Deviation = 0.000605464 Body force = (0 , 0 , 0) 
 At (0.225 , 0.875 , 0.05 )  Deviation = 0 Body force = (0 , 0 , 0) 
 At (0.275 , 0.875 , 0.05 )  Deviation = 9.99636 Body force = (0 , 0 , 0) 
 At (0.325 , 0.875 , 0.05 )  Deviation = 0.000725013 Body force = (0 , 0 , 0) 
 At (0.375 , 0.875 , 0.05 )  Deviation = 0 Body force = (0 , 0 , 0) 
 At (0.425 , 0.875 , 0.05 )  Deviation = 9.99532 Body force = (0 , 0 , 0) 
 At (0.475 , 0.875 , 0.05 )  Deviation = 0.000762442 Body force = (0 , 0 , 0) 
 At (0.525 , 0.875 , 0.05 )  Deviation = 0.0980234 Body force = (-15.1113 , -153.666 , -0) 
 At (0.575 , 0.875 , 0.05 )  Deviation = 0.0549903 Body force = (-4.81867 , -87.5392 , -0) 
 At (0.625 , 0.875 , 0.05 )  Deviation = 0.0308591 Body force = (-1.52861 , -49.5196 , -0) 
 At (0.675 , 0.875 , 0.05 )  Deviation = 0.0173063 Body force = (-0.481878 , -27.8413 , -0) 
 At (0.725 , 0.875 , 0.05 )  Deviation = 0.00977923 Body force = (-0.153964 , -15.7435 , -0) 
 At (0.775 , 0.875 , 0.05 )  Deviation = 0.00569406 Body force = (-0.0522427 , -9.17485 , -0) 
 At (0.825 , 0.875 , 0.05 )  Deviation = 0.00355205 Body force = (-0.0203629 , -5.7327 , -0) 
 At (0.875 , 0.875 , 0.05 )  Deviation = 0.00248349 Body force = (-0.00997742 , -4.01749 , -0) 
 At (0.925 , 0.875 , 0.05 )  Deviation = 0.00199308 Body force = (-0.00644424 , -3.23331 , -0) 
 At (0.975 , 0.875 , 0.05 )  Deviation = 0.0018009 Body force = (-0.00527787 , -2.93069 , -0) 
 At (1.025 , 0.875 , 0.05 )  Deviation = 0.00175267 Body force = (-0.00501516 , -2.86143 , -0) 
 At (1.075 , 0.875 , 0.05 )  Deviation = 0.00176338 Body force = (-0.00509272 , -2.88804 , -0) 
 At (1.125 , 0.875 , 0.05 )  Deviation = 0.00178884 Body force = (-0.00525639 , -2.93842 , -0) 
 At (1.175 , 0.875 , 0.05 )  Deviation = 0.00180747 Body force = (-0.00538064 , -2.97689 , -0) 
 At (1.225 , 0.875 , 0.05 )  Deviation = 0.00181174 Body force = (-0.00541844 , -2.99074 , -0) 
 At (1.275 , 0.875 , 0.05 )  Deviation = 0.00180086 Body force = (-0.00536374 , -2.97844 , -0) 
 At (1.325 , 0.875 , 0.05 )  Deviation = 0.00177675 Body force = (-0.00522914 , -2.94309 , -0) 
 At (1.375 , 0.875 , 0.05 )  Deviation = 0.00173954 Body force = (-0.00501808 , -2.88472 , -0) 
 At (1.425 , 0.875 , 0.05 )  Deviation = 0.00169537 Body force = (-0.00477023 , -2.81369 , -0) 
 At (1.475 , 0.875 , 0.05 )  Deviation = 0.00164843 Body force = (-0.00451168 , -2.73695 , -0) 
 At (1.525 , 0.875 , 0.05 )  Deviation = -1.20157 Body force = (0 , 0 , 0) 
 At (1.575 , 0.875 , 0.05 )  Deviation = 0 Body force = (0 , 0 , 0) 
 At (1.625 , 0.875 , 0.05 )  Deviation = 10.0043 Body force = (0 , 0 , 0) 
 At (1.675 , 0.875 , 0.05 )  Deviation = -1.44745 Body force = (0 , 0 , 0) 
 At (1.725 , 0.875 , 0.05 )  Deviation = 0 Body force = (0 , 0 , 0) 
 At (1.775 , 0.875 , 0.05 )  Deviation = 9.99241 Body force = (0 , 0 , 0) 
 At (1.825 , 0.875 , 0.05 )  Deviation = -1.58448 Body force = (0 , 0 , 0) 
 At (1.875 , 0.875 , 0.05 )  Deviation = 0 Body force = (0 , 0 , 0) 
 At (1.925 , 0.875 , 0.05 )  Deviation = 9.9812 Body force = (0 , 0 , 0) 
 At (1.975 , 0.875 , 0.05 )  Deviation = -1.66005 Body force = (0 , 0 , 0) 
 At (0.025 , 0.925 , 0.05 )  Deviation = 0 Body force = (0 , 0 , 0) 
 At (0.075 , 0.925 , 0.05 )  Deviation = 9.97815 Body force = (0 , 0 , 0) 
 At (0.125 , 0.925 , 0.05 )  Deviation = -1.70148 Body force = (0 , 0 , 0) 
 At (0.175 , 0.925 , 0.05 )  Deviation = 0 Body force = (0 , 0 , 0) 
 At (0.225 , 0.925 , 0.05 )  Deviation = 9.98417 Body force = (0 , 0 , 0) 
 At (0.275 , 0.925 , 0.05 )  Deviation = -1.72423 Body force = (0 , 0 , 0) 
 At (0.325 , 0.925 , 0.05 )  Deviation = 0 Body force = (0 , 0 , 0) 
 At (0.375 , 0.925 , 0.05 )  Deviation = 9.99737 Body force = (0 , 0 , 0) 
 At (0.425 , 0.925 , 0.05 )  Deviation = -1.73694 Body force = (0 , 0 , 0) 
 At (0.475 , 0.925 , 0.05 )  Deviation = 0 Body force = (0 , 0 , 0) 
 At (0.525 , 0.925 , 0.05 )  Deviation = 0.0980158 Body force = (-15.1091 , -153.655 , -0) 
 At (0.575 , 0.925 , 0.05 )  Deviation = 0.0549908 Body force = (-4.81878 , -87.5405 , -0) 
 At (0.625 , 0.925 , 0.05 )  Deviation = 0.0308654 Body force = (-1.52924 , -49.5298 , -0) 
 At (0.675 , 0.925 , 0.05 )  Deviation = 0.0173181 Body force = (-0.482536 , -27.8603 , -0) 
 At (0.725 , 0.925 , 0.05 )  Deviation = 0.00979354 Body force = (-0.154413 , -15.7664 , -0) 
 At (0.775 , 0.925 , 0.05 )  Deviation = 0.00570863 Body force = (-0.0525096 , -9.19819 , -0) 
 At (0.825 , 0.925 , 0.05 )  Deviation = 0.00356335 Body force = (-0.0204923 , -5.75084 , -0) 
 At (0.875 , 0.925 , 0.05 )  Deviation = 0.00249072 Body force = (-0.0100354 , -4.02911 , -0) 
 At (0.925 , 0.925 , 0.05 )  Deviation = 0.00199539 Body force = (-0.00645913 , -3.23702 , -0) 
 At (0.975 , 0.925 , 0.05 )  Deviation = 0.00179963 Body force = (-0.00527036 , -2.92858 , -0) 
 At (1.025 , 0.925 , 0.05 )  Deviation = 0.00174864 Body force = (-0.00499209 , -2.85483 , -0) 
 At (1.075 , 0.925 , 0.05 )  Deviation = 0.00175833 Body force = (-0.00506357 , -2.87975 , -0) 
 At (1.125 , 0.925 , 0.05 )  Deviation = 0.00178373 Body force = (-0.00522642 , -2.93004 , -0) 
 At (1.175 , 0.925 , 0.05 )  Deviation = 0.00180335 Body force = (-0.00535621 , -2.97014 , -0) 
 At (1.225 , 0.925 , 0.05 )  Deviation = 0.00180854 Body force = (-0.00539941 , -2.9855 , -0) 
 At (1.275 , 0.925 , 0.05 )  Deviation = 0.00179835 Body force = (-0.00534893 , -2.97435 , -0) 
 At (1.325 , 0.925 , 0.05 )  Deviation = 0.00177427 Body force = (-0.00521463 , -2.93902 , -0) 
 At (1.375 , 0.925 , 0.05 )  Deviation = 0.00173794 Body force = (-0.00500888 , -2.88208 , -0) 
 At (1.425 , 0.925 , 0.05 )  Deviation = 0.00169611 Body force = (-0.00477443 , -2.81493 , -0) 
 At (1.475 , 0.925 , 0.05 )  Deviation = 0.001652 Body force = (-0.00453123 , -2.74287 , -0) 
 At (1.525 , 0.925 , 0.05 )  Deviation = 0 Body force = (0 , 0 , 0) 
 At (1.575 , 0.925 , 0.05 )  Deviation = 10.1481 Body force = (0 , 0 , 0) 
 At (1.625 , 0.925 , 0.05 )  Deviation = -1.7629 Body force = (0 , 0 , 0) 
 At (1.675 , 0.925 , 0.05 )  Deviation = 0 Body force = (0 , 0 , 0) 
 At (1.725 , 0.925 , 0.05 )  Deviation = 10.1588 Body force = (0 , 0 , 0) 
 At (1.775 , 0.925 , 0.05 )  Deviation = -1.76442 Body force = (0 , 0 , 0) 
 At (1.825 , 0.925 , 0.05 )  Deviation = 0 Body force = (0 , 0 , 0) 
 At (1.875 , 0.925 , 0.05 )  Deviation = 10.1667 Body force = (0 , 0 , 0) 
 At (1.925 , 0.925 , 0.05 )  Deviation = -1.76571 Body force = (0 , 0 , 0) 
 At (1.975 , 0.925 , 0.05 )  Deviation = 0 Body force = (0 , 0 , 0) 
 At (0.025 , 0.975 , 0.05 )  Deviation = 10.1723 Body force = (0 , 0 , 0) 
 At (0.075 , 0.975 , 0.05 )  Deviation = -1.76672 Body force = (0 , 0 , 0) 
 At (0.125 , 0.975 , 0.05 )  Deviation = 0 Body force = (0 , 0 , 0) 
 At (0.175 , 0.975 , 0.05 )  Deviation = 10.1754 Body force = (0 , 0 , 0) 
 At (0.225 , 0.975 , 0.05 )  Deviation = -1.76744 Body force = (0 , 0 , 0) 
 At (0.275 , 0.975 , 0.05 )  Deviation = 0 Body force = (0 , 0 , 0) 
 At (0.325 , 0.975 , 0.05 )  Deviation = 10.178 Body force = (0 , 0 , 0) 
 At (0.375 , 0.975 , 0.05 )  Deviation = -1.75247 Body force = (0 , 0 , 0) 
 At (0.425 , 0.975 , 0.05 )  Deviation = 0 Body force = (0 , 0 , 0) 
 At (0.475 , 0.975 , 0.05 )  Deviation = 10.1885 Body force = (0 , 0 , 0) 
 At (0.525 , 0.975 , 0.05 )  Deviation = 0.0979987 Body force = (-15.1039 , -153.63 , -0) 
 At (0.575 , 0.975 , 0.05 )  Deviation = 0.0549889 Body force = (-4.81849 , -87.5383 , -0) 
 At (0.625 , 0.975 , 0.05 )  Deviation = 0.0308749 Body force = (-1.53021 , -49.5459 , -0) 
 At (0.675 , 0.975 , 0.05 )  Deviation = 0.0173355 Body force = (-0.483512 , -27.8887 , -0) 
 At (0.725 , 0.975 , 0.05 )  Deviation = 0.00981468 Body force = (-0.155084 , -15.8007 , -0) 
 At (0.775 , 0.975 , 0.05 )  Deviation = 0.00572907 Body force = (-0.0528869 , -9.23122 , -0) 
 At (0.825 , 0.975 , 0.05 )  Deviation = 0.00357986 Body force = (-0.0206827 , -5.77749 , -0) 
 At (0.875 , 0.975 , 0.05 )  Deviation = 0.00250153 Body force = (-0.0101226 , -4.04657 , -0) 
 At (0.925 , 0.975 , 0.05 )  Deviation = 0.00200041 Body force = (-0.00649156 , -3.24512 , -0) 
 At (0.975 , 0.975 , 0.05 )  Deviation = 0.00179965 Body force = (-0.00527046 , -2.9286 , -0) 
 At (1.025 , 0.975 , 0.05 )  Deviation = 0.00174517 Body force = (-0.00497226 , -2.84914 , -0) 
 At (1.075 , 0.975 , 0.05 )  Deviation = 0.00175293 Body force = (-0.00503252 , -2.87091 , -0) 
 At (1.125 , 0.975 , 0.05 )  Deviation = 0.00177799 Body force = (-0.00519282 , -2.92061 , -0) 
 At (1.175 , 0.975 , 0.05 )  Deviation = 0.0017981 Body force = (-0.00532513 , -2.96153 , -0) 
 At (1.225 , 0.975 , 0.05 )  Deviation = 0.00180391 Body force = (-0.00537189 , -2.97791 , -0) 
 At (1.275 , 0.975 , 0.05 )  Deviation = 0.00179372 Body force = (-0.0053215 , -2.96673 , -0) 
 At (1.325 , 0.975 , 0.05 )  Deviation = 0.00177028 Body force = (-0.00519123 , -2.93243 , -0) 
 At (1.375 , 0.975 , 0.05 )  Deviation = 0.00173682 Body force = (-0.00500245 , -2.88024 , -0) 
 At (1.425 , 0.975 , 0.05 )  Deviation = 0.00170022 Body force = (-0.00479763 , -2.82177 , -0) 
 At (1.475 , 0.975 , 0.05 )  Deviation = 0.00166062 Body force = (-0.00457866 , -2.7572 , -0) 
 At (1.525 , 0.975 , 0.05 )  Deviation = 10.1756 Body force = (0 , 0 , 0) 
 At (1.575 , 0.975 , 0.05 )  Deviation = -1.72133 Body force = (0 , 0 , 0) 
 At (1.625 , 0.975 , 0.05 )  Deviation = 0 Body force = (0 , 0 , 0) 
 At (1.675 , 0.975 , 0.05 )  Deviation = 10.1501 Body force = (0 , 0 , 0) 
 At (1.725 , 0.975 , 0.05 )  Deviation = -1.68915 Body force = (0 , 0 , 0) 
 At (1.775 , 0.975 , 0.05 )  Deviation = 0 Body force = (0 , 0 , 0) 
 At (1.825 , 0.975 , 0.05 )  Deviation = 9.49397e-320 Body force = (0 , 0 , 0) 
 At (1.875 , 0.975 , 0.05 )  Deviation = 4.16364e-319 Body force = (0 , 0 , 0) 
 At (1.925 , 0.975 , 0.05 )  Deviation = 6.95036e-310 Body force = (0 , 0 , 0) 
 At (1.975 , 0.975 , 0.05 )  Deviation = 6.95036e-310 Body force = (0 , 0 , 0) 
**codeSetValue**
smoothSolver:  Solving for Ux, Initial residual = 0.328279, Final residual = 0.017626, No Iterations 2
smoothSolver:  Solving for Uy, Initial residual = 0.00931761, Final residual = 0.00045968, No Iterations 2
**codeCorrect**
GAMG:  Solving for p, Initial residual = 0.272655, Final residual = 0.0209329, No Iterations 2
time step continuity errors : sum local = 0.0160702, global = -0.00207953, cumulative = 0.00247934
**codeCorrect**
ExecutionTime = 2.84 s  ClockTime = 46 s

Time = 11

**codeSetValue**
smoothSolver:  Solving for Ux, Initial residual = 0.486686, Final residual = 0.0254203, No Iterations 2
smoothSolver:  Solving for Uy, Initial residual = 0.00381727, Final residual = 0.000140669, No Iterations 2
**codeCorrect**
GAMG:  Solving for p, Initial residual = 0.115195, Final residual = 0.00773049, No Iterations 2
time step continuity errors : sum local = 0.0102967, global = -0.0023, cumulative = 0.000179343
**codeCorrect**
ExecutionTime = 2.84 s  ClockTime = 46 s

Time = 12

**codeSetValue**
smoothSolver:  Solving for Ux, Initial residual = 0.62292, Final residual = 0.0375883, No Iterations 2
smoothSolver:  Solving for Uy, Initial residual = 0.00535854, Final residual = 0.000253274, No Iterations 2
**codeCorrect**
GAMG:  Solving for p, Initial residual = 0.0806859, Final residual = 0.00612787, No Iterations 2
time step continuity errors : sum local = 0.00948958, global = -0.00355782, cumulative = -0.00337847
**codeCorrect**
ExecutionTime = 2.84 s  ClockTime = 46 s

Time = 13

**codeSetValue**
smoothSolver:  Solving for Ux, Initial residual = 0.316237, Final residual = 0.0172892, No Iterations 2
smoothSolver:  Solving for Uy, Initial residual = 0.0048099, Final residual = 0.000263561, No Iterations 2
**codeCorrect**
GAMG:  Solving for p, Initial residual = 0.190016, Final residual = 0.0166691, No Iterations 2
time step continuity errors : sum local = 0.00983662, global = 0.00113559, cumulative = -0.00224289
**codeCorrect**
ExecutionTime = 2.86 s  ClockTime = 46 s

Time = 14

**codeSetValue**
smoothSolver:  Solving for Ux, Initial residual = 0.456027, Final residual = 0.0214853, No Iterations 2
smoothSolver:  Solving for Uy, Initial residual = 0.00219785, Final residual = 9.66468e-05, No Iterations 2
**codeCorrect**
GAMG:  Solving for p, Initial residual = 0.128046, Final residual = 0.00877518, No Iterations 2
time step continuity errors : sum local = 0.00730966, global = 0.00218576, cumulative = -5.71229e-05
**codeCorrect**
ExecutionTime = 2.86 s  ClockTime = 46 s

Time = 15

**codeSetValue**
smoothSolver:  Solving for Ux, Initial residual = 0.586612, Final residual = 0.032757, No Iterations 2
smoothSolver:  Solving for Uy, Initial residual = 0.0023923, Final residual = 9.94183e-05, No Iterations 2
**codeCorrect**
GAMG:  Solving for p, Initial residual = 0.088752, Final residual = 0.00684643, No Iterations 2
time step continuity errors : sum local = 0.00737564, global = 0.00362589, cumulative = 0.00356877
**codeCorrect**
ExecutionTime = 2.88 s  ClockTime = 46 s

Time = 16

**codeSetValue**
smoothSolver:  Solving for Ux, Initial residual = 0.30895, Final residual = 0.0183129, No Iterations 2
smoothSolver:  Solving for Uy, Initial residual = 0.00261138, Final residual = 0.000144075, No Iterations 2
**codeCorrect**
GAMG:  Solving for p, Initial residual = 0.107276, Final residual = 0.0102963, No Iterations 2
time step continuity errors : sum local = 0.00602241, global = 0.00132042, cumulative = 0.00488919
**codeCorrect**
ExecutionTime = 2.89 s  ClockTime = 46 s

Time = 17

**codeSetValue**
smoothSolver:  Solving for Ux, Initial residual = 0.399694, Final residual = 0.0177694, No Iterations 2
smoothSolver:  Solving for Uy, Initial residual = 0.00150248, Final residual = 8.30928e-05, No Iterations 2
**codeCorrect**
GAMG:  Solving for p, Initial residual = 0.171148, Final residual = 0.0161298, No Iterations 2
time step continuity errors : sum local = 0.00587303, global = -0.000387123, cumulative = 0.00450207
**codeCorrect**
ExecutionTime = 2.89 s  ClockTime = 46 s

Time = 18

**codeSetValue**
smoothSolver:  Solving for Ux, Initial residual = 0.539869, Final residual = 0.0287713, No Iterations 2
smoothSolver:  Solving for Uy, Initial residual = 0.00113522, Final residual = 4.22046e-05, No Iterations 2
**codeCorrect**
GAMG:  Solving for p, Initial residual = 0.10415, Final residual = 0.00628407, No Iterations 2
time step continuity errors : sum local = 0.00377011, global = -0.00166947, cumulative = 0.0028326
**codeCorrect**
ExecutionTime = 2.91 s  ClockTime = 46 s

Time = 19

**codeSetValue**
smoothSolver:  Solving for Ux, Initial residual = 0.333115, Final residual = 0.0204612, No Iterations 2
smoothSolver:  Solving for Uy, Initial residual = 0.00141851, Final residual = 7.66652e-05, No Iterations 2
**codeCorrect**
GAMG:  Solving for p, Initial residual = 0.11635, Final residual = 0.0112724, No Iterations 2
time step continuity errors : sum local = 0.00442396, global = -0.00126026, cumulative = 0.00157233
**codeCorrect**
ExecutionTime = 2.92 s  ClockTime = 46 s

Time = 20

 At (0.025 , 0.025 , 0.05 )  Deviation = 6.95036e-310 Body force = (0 , 0 , 0) 
 At (0.075 , 0.025 , 0.05 )  Deviation = 6.95036e-310 Body force = (0 , 0 , 0) 
 At (0.125 , 0.025 , 0.05 )  Deviation = 1.11982e-316 Body force = (0 , 0 , 0) 
 At (0.175 , 0.025 , 0.05 )  Deviation = 1.11982e-316 Body force = (0 , 0 , 0) 
 At (0.225 , 0.025 , 0.05 )  Deviation = 2.122e-314 Body force = (0 , 0 , 0) 
[...]
 At (1.275 , 0.725 , 0.05 )  Deviation = 1.63242e-05 Body force = (-4.31595e-07 , -0.026439 , -0) 
 At (1.325 , 0.725 , 0.05 )  Deviation = 9.14958e-06 Body force = (-1.35587e-07 , -0.0148189 , -0) 
 At (1.375 , 0.725 , 0.05 )  Deviation = 5.13166e-06 Body force = (-4.26512e-08 , -0.00831139 , -0) 
 At (1.425 , 0.725 , 0.05 )  Deviation = 2.88234e-06 Body force = (-1.34557e-08 , -0.00466833 , -0) 
 At (1.475 , 0.725 , 0.05 )  Deviation = 1.62419e-06 Body force = (-4.2726e-09 , -0.0026306 , -0) 
 At (1.525 , 0.725 , 0.05 )  Deviation = 3.70868e-10 Body force = (0 , 0 , 0) 
 At (1.575 , 0.725 , 0.05 )  Deviation = 3.53185e-10 Body force = (0 , 0 , 0) 
 At (1.625 , 0.725 , 0.05 )  Deviation = 2.97018e-09 Body force = (0 , 0 , 0) 
 At (1.675 , 0.725 , 0.05 )  Deviation = 2.6589e-09 Body force = (0 , 0 , 0) 
 At (1.725 , 0.725 , 0.05 )  Deviation = 2.59758e-09 Body force = (0 , 0 , 0) 
 At (1.775 , 0.725 , 0.05 )  Deviation = 2.67632e-09 Body force = (0 , 0 , 0) 
 At (1.825 , 0.725 , 0.05 )  Deviation = 2.81093e-09 Body force = (0 , 0 , 0) 
 At (1.875 , 0.725 , 0.05 )  Deviation = 2.93024e-09 Body force = (0 , 0 , 0) 
 At (1.925 , 0.725 , 0.05 )  Deviation = 2.98188e-09 Body force = (0 , 0 , 0) 
 At (1.975 , 0.725 , 0.05 )  Deviation = 2.92912e-09 Body force = (0 , 0 , 0) 
 At (0.025 , 0.775 , 0.05 )  Deviation = 2.75947e-09 Body force = (0 , 0 , 0) 
 At (0.075 , 0.775 , 0.05 )  Deviation = 2.48025e-09 Body force = (0 , 0 , 0) 
 At (0.125 , 0.775 , 0.05 )  Deviation = 2.12249e-09 Body force = (0 , 0 , 0) 
 At (0.175 , 0.775 , 0.05 )  Deviation = 1.72749e-09 Body force = (0 , 0 , 0) 
 At (0.225 , 0.775 , 0.05 )  Deviation = 1.33955e-09 Body force = (0 , 0 , 0) 
 At (0.275 , 0.775 , 0.05 )  Deviation = 9.84172e-10 Body force = (0 , 0 , 0) 
 At (0.325 , 0.775 , 0.05 )  Deviation = 6.58912e-10 Body force = (0 , 0 , 0) 
 At (0.375 , 0.775 , 0.05 )  Deviation = 3.21038e-10 Body force = (0 , 0 , 0) 
 At (0.425 , 0.775 , 0.05 )  Deviation = -1.05526e-10 Body force = (0 , 0 , 0) 
 At (0.475 , 0.775 , 0.05 )  Deviation = -7.20913e-10 Body force = (0 , 0 , 0) 
 At (0.525 , 0.775 , 0.05 )  Deviation = 0.0978673 Body force = (-15.0572 , -153.361 , -0) 
 At (0.575 , 0.775 , 0.05 )  Deviation = 0.0548147 Body force = (-4.78468 , -87.2009 , -0) 
 At (0.625 , 0.775 , 0.05 )  Deviation = 0.0306923 Body force = (-1.51181 , -49.2414 , -0) 
 At (0.675 , 0.775 , 0.05 )  Deviation = 0.0171544 Body force = (-0.474019 , -27.6298 , -0) 
 At (0.725 , 0.775 , 0.05 )  Deviation = 0.00958793 Body force = (-0.148396 , -15.4769 , -0) 
 At (0.775 , 0.775 , 0.05 )  Deviation = 0.00536764 Body force = (-0.046575 , -8.67691 , -0) 
 At (0.825 , 0.775 , 0.05 )  Deviation = 0.00300789 Body force = (-0.014638 , -4.86652 , -0) 
 At (0.875 , 0.775 , 0.05 )  Deviation = 0.00168505 Body force = (-0.0045961 , -2.72757 , -0) 
 At (0.925 , 0.775 , 0.05 )  Deviation = 0.000943515 Body force = (-0.00144136 , -1.52765 , -0) 
 At (0.975 , 0.775 , 0.05 )  Deviation = 0.000528312 Body force = (-0.000451977 , -0.855512 , -0) 
 At (1.025 , 0.775 , 0.05 )  Deviation = 0.000295909 Body force = (-0.000141804 , -0.479215 , -0) 
 At (1.075 , 0.775 , 0.05 )  Deviation = 0.000165763 Body force = (-4.45007e-05 , -0.26846 , -0) 
 At (1.125 , 0.775 , 0.05 )  Deviation = 9.28522e-05 Body force = (-1.39633e-05 , -0.150382 , -0) 
 At (1.175 , 0.775 , 0.05 )  Deviation = 5.20091e-05 Body force = (-4.38095e-06 , -0.0842342 , -0) 
 At (1.225 , 0.775 , 0.05 )  Deviation = 2.91346e-05 Body force = (-1.37477e-06 , -0.0471869 , -0) 
 At (1.275 , 0.775 , 0.05 )  Deviation = 1.63242e-05 Body force = (-4.31597e-07 , -0.0264391 , -0) 
 At (1.325 , 0.775 , 0.05 )  Deviation = 9.14964e-06 Body force = (-1.35589e-07 , -0.014819 , -0) 
 At (1.375 , 0.775 , 0.05 )  Deviation = 5.13172e-06 Body force = (-4.26523e-08 , -0.0083115 , -0) 
 At (1.425 , 0.775 , 0.05 )  Deviation = 2.88239e-06 Body force = (-1.34561e-08 , -0.00466841 , -0) 
 At (1.475 , 0.775 , 0.05 )  Deviation = 1.62421e-06 Body force = (-4.27267e-09 , -0.00263062 , -0) 
 At (1.525 , 0.775 , 0.05 )  Deviation = 4.55959e-10 Body force = (0 , 0 , 0) 
 At (1.575 , 0.775 , 0.05 )  Deviation = 4.37957e-10 Body force = (0 , 0 , 0) 
 At (1.625 , 0.775 , 0.05 )  Deviation = 2.92606e-09 Body force = (0 , 0 , 0) 
 At (1.675 , 0.775 , 0.05 )  Deviation = 2.6279e-09 Body force = (0 , 0 , 0) 
 At (1.725 , 0.775 , 0.05 )  Deviation = 2.57417e-09 Body force = (0 , 0 , 0) 
 At (1.775 , 0.775 , 0.05 )  Deviation = 2.6611e-09 Body force = (0 , 0 , 0) 
 At (1.825 , 0.775 , 0.05 )  Deviation = 2.80103e-09 Body force = (0 , 0 , 0) 
 At (1.875 , 0.775 , 0.05 )  Deviation = 2.92615e-09 Body force = (0 , 0 , 0) 
 At (1.925 , 0.775 , 0.05 )  Deviation = 2.97991e-09 Body force = (0 , 0 , 0) 
 At (1.975 , 0.775 , 0.05 )  Deviation = 2.92981e-09 Body force = (0 , 0 , 0) 
 At (0.025 , 0.825 , 0.05 )  Deviation = 2.75976e-09 Body force = (0 , 0 , 0) 
 At (0.075 , 0.825 , 0.05 )  Deviation = 2.48193e-09 Body force = (0 , 0 , 0) 
 At (0.125 , 0.825 , 0.05 )  Deviation = 2.12377e-09 Body force = (0 , 0 , 0) 
 At (0.175 , 0.825 , 0.05 )  Deviation = 1.73094e-09 Body force = (0 , 0 , 0) 
 At (0.225 , 0.825 , 0.05 )  Deviation = 1.34379e-09 Body force = (0 , 0 , 0) 
 At (0.275 , 0.825 , 0.05 )  Deviation = 9.91196e-10 Body force = (0 , 0 , 0) 
 At (0.325 , 0.825 , 0.05 )  Deviation = 6.66703e-10 Body force = (0 , 0 , 0) 
 At (0.375 , 0.825 , 0.05 )  Deviation = 3.30183e-10 Body force = (0 , 0 , 0) 
 At (0.425 , 0.825 , 0.05 )  Deviation = -9.77632e-11 Body force = (0 , 0 , 0) 
 At (0.475 , 0.825 , 0.05 )  Deviation = -7.14928e-10 Body force = (0 , 0 , 0) 
 At (0.525 , 0.825 , 0.05 )  Deviation = 0.0978673 Body force = (-15.0572 , -153.361 , -0) 
 At (0.575 , 0.825 , 0.05 )  Deviation = 0.0548147 Body force = (-4.78468 , -87.2009 , -0) 
 At (0.625 , 0.825 , 0.05 )  Deviation = 0.0306923 Body force = (-1.51181 , -49.2414 , -0) 
 At (0.675 , 0.825 , 0.05 )  Deviation = 0.0171544 Body force = (-0.474019 , -27.6298 , -0) 
 At (0.725 , 0.825 , 0.05 )  Deviation = 0.00958793 Body force = (-0.148396 , -15.4769 , -0) 
 At (0.775 , 0.825 , 0.05 )  Deviation = 0.00536764 Body force = (-0.046575 , -8.67691 , -0) 
 At (0.825 , 0.825 , 0.05 )  Deviation = 0.00300789 Body force = (-0.014638 , -4.86652 , -0) 
 At (0.875 , 0.825 , 0.05 )  Deviation = 0.00168505 Body force = (-0.0045961 , -2.72757 , -0) 
 At (0.925 , 0.825 , 0.05 )  Deviation = 0.000943515 Body force = (-0.00144136 , -1.52765 , -0) 
 At (0.975 , 0.825 , 0.05 )  Deviation = 0.000528312 Body force = (-0.000451977 , -0.855512 , -0) 
 At (1.025 , 0.825 , 0.05 )  Deviation = 0.000295909 Body force = (-0.000141804 , -0.479215 , -0) 
 At (1.075 , 0.825 , 0.05 )  Deviation = 0.000165763 Body force = (-4.45007e-05 , -0.26846 , -0) 
 At (1.125 , 0.825 , 0.05 )  Deviation = 9.28522e-05 Body force = (-1.39633e-05 , -0.150382 , -0) 
 At (1.175 , 0.825 , 0.05 )  Deviation = 5.20091e-05 Body force = (-4.38095e-06 , -0.0842342 , -0) 
 At (1.225 , 0.825 , 0.05 )  Deviation = 2.91347e-05 Body force = (-1.37478e-06 , -0.047187 , -0) 
 At (1.275 , 0.825 , 0.05 )  Deviation = 1.63243e-05 Body force = (-4.31601e-07 , -0.0264392 , -0) 
 At (1.325 , 0.825 , 0.05 )  Deviation = 9.14972e-06 Body force = (-1.35591e-07 , -0.0148192 , -0) 
 At (1.375 , 0.825 , 0.05 )  Deviation = 5.1318e-06 Body force = (-4.26536e-08 , -0.00831162 , -0) 
 At (1.425 , 0.825 , 0.05 )  Deviation = 2.88244e-06 Body force = (-1.34567e-08 , -0.0046685 , -0) 
 At (1.475 , 0.825 , 0.05 )  Deviation = 1.62422e-06 Body force = (-4.27274e-09 , -0.00263064 , -0) 
 At (1.525 , 0.825 , 0.05 )  Deviation = 5.29066e-10 Body force = (0 , 0 , 0) 
 At (1.575 , 0.825 , 0.05 )  Deviation = 5.15002e-10 Body force = (0 , 0 , 0) 
 At (1.625 , 0.825 , 0.05 )  Deviation = 2.90685e-09 Body force = (0 , 0 , 0) 
 At (1.675 , 0.825 , 0.05 )  Deviation = 2.61609e-09 Body force = (0 , 0 , 0) 
 At (1.725 , 0.825 , 0.05 )  Deviation = 2.56718e-09 Body force = (0 , 0 , 0) 
 At (1.775 , 0.825 , 0.05 )  Deviation = 2.65878e-09 Body force = (0 , 0 , 0) 
 At (1.825 , 0.825 , 0.05 )  Deviation = 2.80294e-09 Body force = (0 , 0 , 0) 
 At (1.875 , 0.825 , 0.05 )  Deviation = 2.93063e-09 Body force = (0 , 0 , 0) 
 At (1.925 , 0.825 , 0.05 )  Deviation = 2.98578e-09 Body force = (0 , 0 , 0) 
 At (1.975 , 0.825 , 0.05 )  Deviation = 2.93488e-09 Body force = (0 , 0 , 0) 
 At (0.025 , 0.875 , 0.05 )  Deviation = 2.76431e-09 Body force = (0 , 0 , 0) 
 At (0.075 , 0.875 , 0.05 )  Deviation = 2.48483e-09 Body force = (0 , 0 , 0) 
 At (0.125 , 0.875 , 0.05 )  Deviation = 2.12709e-09 Body force = (0 , 0 , 0) 
 At (0.175 , 0.875 , 0.05 )  Deviation = 1.73382e-09 Body force = (0 , 0 , 0) 
 At (0.225 , 0.875 , 0.05 )  Deviation = 1.34893e-09 Body force = (0 , 0 , 0) 
 At (0.275 , 0.875 , 0.05 )  Deviation = 9.96317e-10 Body force = (0 , 0 , 0) 
 At (0.325 , 0.875 , 0.05 )  Deviation = 6.74353e-10 Body force = (0 , 0 , 0) 
 At (0.375 , 0.875 , 0.05 )  Deviation = 3.35881e-10 Body force = (0 , 0 , 0) 
 At (0.425 , 0.875 , 0.05 )  Deviation = -9.12856e-11 Body force = (0 , 0 , 0) 
 At (0.475 , 0.875 , 0.05 )  Deviation = -7.13459e-10 Body force = (0 , 0 , 0) 
 At (0.525 , 0.875 , 0.05 )  Deviation = 0.0978673 Body force = (-15.0572 , -153.361 , -0) 
 At (0.575 , 0.875 , 0.05 )  Deviation = 0.0548147 Body force = (-4.78468 , -87.2009 , -0) 
 At (0.625 , 0.875 , 0.05 )  Deviation = 0.0306923 Body force = (-1.51181 , -49.2414 , -0) 
 At (0.675 , 0.875 , 0.05 )  Deviation = 0.0171544 Body force = (-0.474019 , -27.6298 , -0) 
 At (0.725 , 0.875 , 0.05 )  Deviation = 0.00958793 Body force = (-0.148396 , -15.4769 , -0) 
 At (0.775 , 0.875 , 0.05 )  Deviation = 0.00536764 Body force = (-0.046575 , -8.67691 , -0) 
 At (0.825 , 0.875 , 0.05 )  Deviation = 0.00300789 Body force = (-0.014638 , -4.86652 , -0) 
 At (0.875 , 0.875 , 0.05 )  Deviation = 0.00168505 Body force = (-0.0045961 , -2.72757 , -0) 
 At (0.925 , 0.875 , 0.05 )  Deviation = 0.000943515 Body force = (-0.00144136 , -1.52765 , -0) 
 At (0.975 , 0.875 , 0.05 )  Deviation = 0.000528312 Body force = (-0.000451977 , -0.855512 , -0) 
 At (1.025 , 0.875 , 0.05 )  Deviation = 0.000295909 Body force = (-0.000141804 , -0.479215 , -0) 
 At (1.075 , 0.875 , 0.05 )  Deviation = 0.000165763 Body force = (-4.45007e-05 , -0.26846 , -0) 
 At (1.125 , 0.875 , 0.05 )  Deviation = 9.28522e-05 Body force = (-1.39633e-05 , -0.150382 , -0) 
 At (1.175 , 0.875 , 0.05 )  Deviation = 5.20092e-05 Body force = (-4.38096e-06 , -0.0842343 , -0) 
 At (1.225 , 0.875 , 0.05 )  Deviation = 2.91347e-05 Body force = (-1.37478e-06 , -0.0471871 , -0) 
 At (1.275 , 0.875 , 0.05 )  Deviation = 1.63244e-05 Body force = (-4.31606e-07 , -0.0264394 , -0) 
 At (1.325 , 0.875 , 0.05 )  Deviation = 9.14983e-06 Body force = (-1.35594e-07 , -0.0148193 , -0) 
 At (1.375 , 0.875 , 0.05 )  Deviation = 5.1319e-06 Body force = (-4.26553e-08 , -0.00831179 , -0) 
 At (1.425 , 0.875 , 0.05 )  Deviation = 2.88253e-06 Body force = (-1.34575e-08 , -0.00466864 , -0) 
 At (1.475 , 0.875 , 0.05 )  Deviation = 1.62428e-06 Body force = (-4.27305e-09 , -0.00263074 , -0) 
 At (1.525 , 0.875 , 0.05 )  Deviation = 5.59105e-10 Body force = (0 , 0 , 0) 
 At (1.575 , 0.875 , 0.05 )  Deviation = 5.48211e-10 Body force = (0 , 0 , 0) 
 At (1.625 , 0.875 , 0.05 )  Deviation = 2.92035e-09 Body force = (0 , 0 , 0) 
 At (1.675 , 0.875 , 0.05 )  Deviation = 2.63191e-09 Body force = (0 , 0 , 0) 
 At (1.725 , 0.875 , 0.05 )  Deviation = 2.58893e-09 Body force = (0 , 0 , 0) 
 At (1.775 , 0.875 , 0.05 )  Deviation = 2.68005e-09 Body force = (0 , 0 , 0) 
 At (1.825 , 0.875 , 0.05 )  Deviation = 2.82828e-09 Body force = (0 , 0 , 0) 
 At (1.875 , 0.875 , 0.05 )  Deviation = 2.95288e-09 Body force = (0 , 0 , 0) 
 At (1.925 , 0.875 , 0.05 )  Deviation = 3.00798e-09 Body force = (0 , 0 , 0) 
 At (1.975 , 0.875 , 0.05 )  Deviation = 2.95138e-09 Body force = (0 , 0 , 0) 
 At (0.025 , 0.925 , 0.05 )  Deviation = 2.77863e-09 Body force = (0 , 0 , 0) 
 At (0.075 , 0.925 , 0.05 )  Deviation = 2.49431e-09 Body force = (0 , 0 , 0) 
 At (0.125 , 0.925 , 0.05 )  Deviation = 2.13524e-09 Body force = (0 , 0 , 0) 
 At (0.175 , 0.925 , 0.05 )  Deviation = 1.74072e-09 Body force = (0 , 0 , 0) 
 At (0.225 , 0.925 , 0.05 )  Deviation = 1.35579e-09 Body force = (0 , 0 , 0) 
 At (0.275 , 0.925 , 0.05 )  Deviation = 1.00556e-09 Body force = (0 , 0 , 0) 
 At (0.325 , 0.925 , 0.05 )  Deviation = 6.82715e-10 Body force = (0 , 0 , 0) 
 At (0.375 , 0.925 , 0.05 )  Deviation = 3.48094e-10 Body force = (0 , 0 , 0) 
 At (0.425 , 0.925 , 0.05 )  Deviation = -8.34481e-11 Body force = (0 , 0 , 0) 
 At (0.475 , 0.925 , 0.05 )  Deviation = -7.03321e-10 Body force = (0 , 0 , 0) 
 At (0.525 , 0.925 , 0.05 )  Deviation = 0.0978673 Body force = (-15.0572 , -153.361 , -0) 
 At (0.575 , 0.925 , 0.05 )  Deviation = 0.0548147 Body force = (-4.78468 , -87.2009 , -0) 
 At (0.625 , 0.925 , 0.05 )  Deviation = 0.0306923 Body force = (-1.51181 , -49.2414 , -0) 
 At (0.675 , 0.925 , 0.05 )  Deviation = 0.0171544 Body force = (-0.474019 , -27.6298 , -0) 
 At (0.725 , 0.925 , 0.05 )  Deviation = 0.00958793 Body force = (-0.148396 , -15.4769 , -0) 
 At (0.775 , 0.925 , 0.05 )  Deviation = 0.00536764 Body force = (-0.046575 , -8.67691 , -0) 
 At (0.825 , 0.925 , 0.05 )  Deviation = 0.00300789 Body force = (-0.014638 , -4.86652 , -0) 
 At (0.875 , 0.925 , 0.05 )  Deviation = 0.00168505 Body force = (-0.0045961 , -2.72757 , -0) 
 At (0.925 , 0.925 , 0.05 )  Deviation = 0.000943515 Body force = (-0.00144136 , -1.52765 , -0) 
 At (0.975 , 0.925 , 0.05 )  Deviation = 0.000528312 Body force = (-0.000451977 , -0.855512 , -0) 
 At (1.025 , 0.925 , 0.05 )  Deviation = 0.00029591 Body force = (-0.000141804 , -0.479215 , -0) 
 At (1.075 , 0.925 , 0.05 )  Deviation = 0.000165763 Body force = (-4.45007e-05 , -0.26846 , -0) 
 At (1.125 , 0.925 , 0.05 )  Deviation = 9.28523e-05 Body force = (-1.39633e-05 , -0.150382 , -0) 
 At (1.175 , 0.925 , 0.05 )  Deviation = 5.20093e-05 Body force = (-4.38097e-06 , -0.0842344 , -0) 
 At (1.225 , 0.925 , 0.05 )  Deviation = 2.91348e-05 Body force = (-1.37479e-06 , -0.0471872 , -0) 
 At (1.275 , 0.925 , 0.05 )  Deviation = 1.63245e-05 Body force = (-4.31611e-07 , -0.0264395 , -0) 
 At (1.325 , 0.925 , 0.05 )  Deviation = 9.14994e-06 Body force = (-1.35598e-07 , -0.0148195 , -0) 
 At (1.375 , 0.925 , 0.05 )  Deviation = 5.13205e-06 Body force = (-4.26577e-08 , -0.00831202 , -0) 
 At (1.425 , 0.925 , 0.05 )  Deviation = 2.8827e-06 Body force = (-1.34591e-08 , -0.00466892 , -0) 
 At (1.475 , 0.925 , 0.05 )  Deviation = 1.62447e-06 Body force = (-4.27404e-09 , -0.00263104 , -0) 
 At (1.525 , 0.925 , 0.05 )  Deviation = 5.21743e-10 Body force = (0 , 0 , 0) 
 At (1.575 , 0.925 , 0.05 )  Deviation = 5.12478e-10 Body force = (0 , 0 , 0) 
 At (1.625 , 0.925 , 0.05 )  Deviation = 2.97423e-09 Body force = (0 , 0 , 0) 
 At (1.675 , 0.925 , 0.05 )  Deviation = 2.69338e-09 Body force = (0 , 0 , 0) 
 At (1.725 , 0.925 , 0.05 )  Deviation = 2.64804e-09 Body force = (0 , 0 , 0) 
 At (1.775 , 0.925 , 0.05 )  Deviation = 2.74189e-09 Body force = (0 , 0 , 0) 
 At (1.825 , 0.925 , 0.05 )  Deviation = 2.88307e-09 Body force = (0 , 0 , 0) 
 At (1.875 , 0.925 , 0.05 )  Deviation = 3.00563e-09 Body force = (0 , 0 , 0) 
 At (1.925 , 0.925 , 0.05 )  Deviation = 3.05018e-09 Body force = (0 , 0 , 0) 
 At (1.975 , 0.925 , 0.05 )  Deviation = 2.98881e-09 Body force = (0 , 0 , 0) 
 At (0.025 , 0.975 , 0.05 )  Deviation = 2.80548e-09 Body force = (0 , 0 , 0) 
 At (0.075 , 0.975 , 0.05 )  Deviation = 2.51662e-09 Body force = (0 , 0 , 0) 
 At (0.125 , 0.975 , 0.05 )  Deviation = 2.15017e-09 Body force = (0 , 0 , 0) 
 At (0.175 , 0.975 , 0.05 )  Deviation = 1.75314e-09 Body force = (0 , 0 , 0) 
 At (0.225 , 0.975 , 0.05 )  Deviation = 1.36628e-09 Body force = (0 , 0 , 0) 
 At (0.275 , 0.975 , 0.05 )  Deviation = 1.01613e-09 Body force = (0 , 0 , 0) 
 At (0.325 , 0.975 , 0.05 )  Deviation = 6.97213e-10 Body force = (0 , 0 , 0) 
 At (0.375 , 0.975 , 0.05 )  Deviation = 3.63736e-10 Body force = (0 , 0 , 0) 
 At (0.425 , 0.975 , 0.05 )  Deviation = -6.1627e-11 Body force = (0 , 0 , 0) 
 At (0.475 , 0.975 , 0.05 )  Deviation = -6.83513e-10 Body force = (0 , 0 , 0) 
 At (0.525 , 0.975 , 0.05 )  Deviation = 0.0978673 Body force = (-15.0572 , -153.361 , -0) 
 At (0.575 , 0.975 , 0.05 )  Deviation = 0.0548147 Body force = (-4.78468 , -87.2009 , -0) 
 At (0.625 , 0.975 , 0.05 )  Deviation = 0.0306923 Body force = (-1.51181 , -49.2414 , -0) 
 At (0.675 , 0.975 , 0.05 )  Deviation = 0.0171544 Body force = (-0.474019 , -27.6298 , -0) 
 At (0.725 , 0.975 , 0.05 )  Deviation = 0.00958793 Body force = (-0.148396 , -15.4769 , -0) 
 At (0.775 , 0.975 , 0.05 )  Deviation = 0.00536764 Body force = (-0.046575 , -8.67691 , -0) 
 At (0.825 , 0.975 , 0.05 )  Deviation = 0.00300789 Body force = (-0.014638 , -4.86652 , -0) 
 At (0.875 , 0.975 , 0.05 )  Deviation = 0.00168505 Body force = (-0.0045961 , -2.72757 , -0) 
 At (0.925 , 0.975 , 0.05 )  Deviation = 0.000943515 Body force = (-0.00144136 , -1.52765 , -0) 
 At (0.975 , 0.975 , 0.05 )  Deviation = 0.000528312 Body force = (-0.000451977 , -0.855512 , -0) 
 At (1.025 , 0.975 , 0.05 )  Deviation = 0.00029591 Body force = (-0.000141804 , -0.479215 , -0) 
 At (1.075 , 0.975 , 0.05 )  Deviation = 0.000165763 Body force = (-4.45007e-05 , -0.26846 , -0) 
 At (1.125 , 0.975 , 0.05 )  Deviation = 9.28523e-05 Body force = (-1.39633e-05 , -0.150382 , -0) 
 At (1.175 , 0.975 , 0.05 )  Deviation = 5.20093e-05 Body force = (-4.38098e-06 , -0.0842345 , -0) 
 At (1.225 , 0.975 , 0.05 )  Deviation = 2.91349e-05 Body force = (-1.3748e-06 , -0.0471873 , -0) 
 At (1.275 , 0.975 , 0.05 )  Deviation = 1.63246e-05 Body force = (-4.31616e-07 , -0.0264397 , -0) 
 At (1.325 , 0.975 , 0.05 )  Deviation = 9.15008e-06 Body force = (-1.35602e-07 , -0.0148197 , -0) 
 At (1.375 , 0.975 , 0.05 )  Deviation = 5.13224e-06 Body force = (-4.2661e-08 , -0.00831234 , -0) 
 At (1.425 , 0.975 , 0.05 )  Deviation = 2.88295e-06 Body force = (-1.34615e-08 , -0.00466933 , -0) 
 At (1.475 , 0.975 , 0.05 )  Deviation = 1.62476e-06 Body force = (-4.2756e-09 , -0.00263152 , -0) 
 At (1.525 , 0.975 , 0.05 )  Deviation = 3.1607e-10 Body force = (0 , 0 , 0) 
 At (1.575 , 0.975 , 0.05 )  Deviation = 2.96214e-10 Body force = (0 , 0 , 0) 
 At (1.625 , 0.975 , 0.05 )  Deviation = 3.10233e-09 Body force = (0 , 0 , 0) 
 At (1.675 , 0.975 , 0.05 )  Deviation = 2.81349e-09 Body force = (0 , 0 , 0) 
 At (1.725 , 0.975 , 0.05 )  Deviation = 2.7611e-09 Body force = (0 , 0 , 0) 
 At (1.775 , 0.975 , 0.05 )  Deviation = 2.84425e-09 Body force = (0 , 0 , 0) 
 At (1.825 , 0.975 , 0.05 )  Deviation = 2.97261e-09 Body force = (0 , 0 , 0) 
 At (1.875 , 0.975 , 0.05 )  Deviation = 3.08085e-09 Body force = (0 , 0 , 0) 
 At (1.925 , 0.975 , 0.05 )  Deviation = 3.11247e-09 Body force = (0 , 0 , 0) 
 At (1.975 , 0.975 , 0.05 )  Deviation = 3.03867e-09 Body force = (0 , 0 , 0) 
**codeSetValue**
smoothSolver:  Solving for Ux, Initial residual = 0.000109102, Final residual = 6.6065e-06, No Iterations 2
smoothSolver:  Solving for Uy, Initial residual = 5.92598e-08, Final residual = 2.63535e-09, No Iterations 2
**codeCorrect**
GAMG:  Solving for p, Initial residual = 2.30296e-05, Final residual = 1.64682e-06, No Iterations 2
time step continuity errors : sum local = 1.88563e-07, global = 3.91643e-08, cumulative = 0.00234068
**codeCorrect**
ExecutionTime = 21.69 s  ClockTime = 65 s

Time = 81

**codeSetValue**
smoothSolver:  Solving for Ux, Initial residual = 7.41725e-05, Final residual = 3.71592e-06, No Iterations 2
smoothSolver:  Solving for Uy, Initial residual = 6.466e-08, Final residual = 3.61048e-09, No Iterations 2
**codeCorrect**
GAMG:  Solving for p, Initial residual = 1.98894e-05, Final residual = 1.41279e-06, No Iterations 2
time step continuity errors : sum local = 1.61746e-07, global = -3.36668e-08, cumulative = 0.00234064
**codeCorrect**
ExecutionTime = 21.69 s  ClockTime = 65 s


SIMPLE solution converged in 81 iterations

End

