/*---------------------------------------------------------------------------*\
| =========                 |                                                 |
| \\      /  F ield         | OpenFOAM: The Open Source CFD Toolbox           |
|  \\    /   O peration     | Version:  5.x                                   |
|   \\  /    A nd           | Web:      www.OpenFOAM.org                      |
|    \\/     M anipulation  |                                                 |
\*---------------------------------------------------------------------------*/
Build  : 5.x-197d9d3bf20a
Exec   : simpleFoam
Date   : Jan 29 2019
Time   : 23:33:46
Host   : "palak"
PID    : 3351
I/O    : uncollated
Case   : /home/palak/OpenFOAM/palak-5.0/run/Z1flatanalytical
nProcs : 1
sigFpe : Enabling floating point exception trapping (FOAM_SIGFPE).
fileModificationChecking : Monitoring run-time modified files using timeStampMaster (fileModificationSkew 10)
allowSystemOperations : Allowing user-supplied system call operations

// * * * * * * * * * * * * * * * * * * * * * * * * * * * * * * * * * * * * * //
Create time

Create mesh for time = 0


SIMPLE: convergence criteria
    field p	 tolerance 0.001
    field U	 tolerance 0.0001
    field "(k|epsilon)"	 tolerance 0.0001

Reading field p

Reading field U

Reading/calculating face flux field phi

Selecting incompressible transport model Newtonian
Selecting turbulence model type laminar
Selecting laminar stress model Stokes
No MRF models present

Creating finite volume options from "constant/fvOptions"

Selecting finite volume options model type vectorCodedSource
    Source: momentumSource
    - selecting all cells
    - selected 800 cell(s) with volume 0.2

Starting time loop

Time = 1

Using dynamicCode for fvOption:: bodyForce at line 25 in "/home/palak/OpenFOAM/palak-5.0/run/Z1flatanalytical/constant/fvOptions.momentumSource.vectorCodedSourceCoeffs"
Creating new library in "dynamicCode/bodyForce/platforms/linux64GccDPInt32Opt/lib/libbodyForce_a47c3f9bb16c80f31a3b88750629f0b073722c16.so"
Invoking "wmake -s libso /home/palak/OpenFOAM/palak-5.0/run/Z1flatanalytical/dynamicCode/bodyForce"
wmake libso /home/palak/OpenFOAM/palak-5.0/run/Z1flatanalytical/dynamicCode/bodyForce
    wmkdep: codedFvOptionTemplate.C
    Ctoo: codedFvOptionTemplate.C
    ld: /home/palak/OpenFOAM/palak-5.0/run/Z1flatanalytical/dynamicCode/bodyForce/../platforms/linux64GccDPInt32Opt/lib/libbodyForce_a47c3f9bb16c80f31a3b88750629f0b073722c16.so
Selecting finite volume options model type bodyForce
    Source: bodyForce
    - selecting all cells
    - selected 800 cell(s) with volume 0.2
**codeSetValue**
smoothSolver:  Solving for Ux, Initial residual = 1, Final residual = 0.000190637, No Iterations 1
smoothSolver:  Solving for Uy, Initial residual = 1, Final residual = 0.000190637, No Iterations 1
**codeCorrect**
GAMG:  Solving for p, Initial residual = 1, Final residual = 0.0904549, No Iterations 2
time step continuity errors : sum local = 0.0024734, global = -0.000192946, cumulative = -0.000192946
**codeCorrect**
ExecutionTime = 0.25 s  ClockTime = 24 s

Time = 2

**codeSetValue**
smoothSolver:  Solving for Ux, Initial residual = 0.0827317, Final residual = 0.0019877, No Iterations 1
smoothSolver:  Solving for Uy, Initial residual = 0.322797, Final residual = 0.00914102, No Iterations 1
**codeCorrect**
GAMG:  Solving for p, Initial residual = 0.0869745, Final residual = 0.00861876, No Iterations 2
time step continuity errors : sum local = 0.00177565, global = -0.000153528, cumulative = -0.000346474
**codeCorrect**
ExecutionTime = 0.25 s  ClockTime = 24 s

Time = 3

**codeSetValue**
smoothSolver:  Solving for Ux, Initial residual = 0.568792, Final residual = 0.0293184, No Iterations 1
smoothSolver:  Solving for Uy, Initial residual = 0.205346, Final residual = 0.00972336, No Iterations 1
**codeCorrect**
GAMG:  Solving for p, Initial residual = 0.0525343, Final residual = 0.00457696, No Iterations 2
time step continuity errors : sum local = 0.00142225, global = -4.83589e-05, cumulative = -0.000394833
**codeCorrect**
ExecutionTime = 0.27 s  ClockTime = 24 s

Time = 4

**codeSetValue**
smoothSolver:  Solving for Ux, Initial residual = 0.544228, Final residual = 0.0389037, No Iterations 1
smoothSolver:  Solving for Uy, Initial residual = 0.155341, Final residual = 0.00952612, No Iterations 1
**codeCorrect**
GAMG:  Solving for p, Initial residual = 0.0921552, Final residual = 0.00725426, No Iterations 2
time step continuity errors : sum local = 0.00178981, global = 1.65676e-05, cumulative = -0.000378265
**codeCorrect**
ExecutionTime = 0.27 s  ClockTime = 24 s

Time = 5

**codeSetValue**
smoothSolver:  Solving for Ux, Initial residual = 0.161179, Final residual = 0.00910541, No Iterations 1
smoothSolver:  Solving for Uy, Initial residual = 0.123521, Final residual = 0.00895228, No Iterations 1
**codeCorrect**
GAMG:  Solving for p, Initial residual = 0.17506, Final residual = 0.0161477, No Iterations 2
time step continuity errors : sum local = 0.00149668, global = -4.18244e-05, cumulative = -0.000420089
**codeCorrect**
ExecutionTime = 0.27 s  ClockTime = 24 s

Time = 6

**codeSetValue**
smoothSolver:  Solving for Ux, Initial residual = 0.505368, Final residual = 0.0467025, No Iterations 1
smoothSolver:  Solving for Uy, Initial residual = 0.0996116, Final residual = 0.00815702, No Iterations 1
**codeCorrect**
GAMG:  Solving for p, Initial residual = 0.228361, Final residual = 0.0179228, No Iterations 2
time step continuity errors : sum local = 0.00106376, global = -2.84163e-05, cumulative = -0.000448506
**codeCorrect**
ExecutionTime = 0.29 s  ClockTime = 24 s

Time = 7

**codeSetValue**
smoothSolver:  Solving for Ux, Initial residual = 0.543281, Final residual = 0.00621681, No Iterations 2
smoothSolver:  Solving for Uy, Initial residual = 0.0803251, Final residual = 0.00722867, No Iterations 1
**codeCorrect**
GAMG:  Solving for p, Initial residual = 0.414874, Final residual = 0.034232, No Iterations 2
time step continuity errors : sum local = 0.00130568, global = 0.000114162, cumulative = -0.000334344
**codeCorrect**
ExecutionTime = 0.29 s  ClockTime = 24 s

Time = 8

**codeSetValue**
smoothSolver:  Solving for Ux, Initial residual = 0.251167, Final residual = 0.0200872, No Iterations 1
smoothSolver:  Solving for Uy, Initial residual = 0.0643745, Final residual = 0.0062444, No Iterations 1
**codeCorrect**
GAMG:  Solving for p, Initial residual = 0.104724, Final residual = 0.00919429, No Iterations 2
time step continuity errors : sum local = 0.00122543, global = 0.000146588, cumulative = -0.000187756
**codeCorrect**
ExecutionTime = 0.29 s  ClockTime = 24 s

Time = 9

**codeSetValue**
smoothSolver:  Solving for Ux, Initial residual = 0.487061, Final residual = 0.00640328, No Iterations 2
smoothSolver:  Solving for Uy, Initial residual = 0.0508828, Final residual = 0.000555159, No Iterations 2
**codeCorrect**
GAMG:  Solving for p, Initial residual = 0.0628383, Final residual = 0.00435433, No Iterations 2
time step continuity errors : sum local = 0.000795588, global = 0.000198355, cumulative = 1.05995e-05
**codeCorrect**
ExecutionTime = 0.3 s  ClockTime = 24 s

Time = 10

 At (0.025 , 0.025 , 0.05 )  Deviation = 6.91316e-310 Body force = (0 , 0 , 0) 
 At (0.075 , 0.025 , 0.05 )  Deviation = 6.91316e-310 Body force = (0 , 0 , 0) 
 At (0.125 , 0.025 , 0.05 )  Deviation = 9.99761e-317 Body force = (0 , 0 , 0) 
 At (0.175 , 0.025 , 0.05 )  Deviation = 9.99761e-317 Body force = (0 , 0 , 0) 
 At (0.225 , 0.025 , 0.05 )  Deviation = 9.99236 Body force = (0 , 0 , 0) 
 At (0.275 , 0.025 , 0.05 )  Deviation = -0.407702 Body force = (0 , 0 , 0) 
 At (0.325 , 0.025 , 0.05 )  Deviation = 0 Body force = (0 , 0 , 0) 
 At (0.375 , 0.025 , 0.05 )  Deviation = 9.99145 Body force = (0 , 0 , 0) 
 At (0.425 , 0.025 , 0.05 )  Deviation = -0.456999 Body force = (0 , 0 , 0) 
 At (0.475 , 0.025 , 0.05 )  Deviation = 0 Body force = (0 , 0 , 0) 
 At (0.525 , 0.025 , 0.05 )  Deviation = 0.168026 Body force = (-2.2064 , -13.0075 , -0) 
 At (0.575 , 0.025 , 0.05 )  Deviation = 0.161758 Body force = (-2.04623 , -12.5394 , -0) 
 At (0.625 , 0.025 , 0.05 )  Deviation = 0.155719 Body force = (-1.89767 , -12.0878 , -0) 
 At (0.675 , 0.025 , 0.05 )  Deviation = 0.149903 Body force = (-1.75947 , -11.6493 , -0) 
 At (0.725 , 0.025 , 0.05 )  Deviation = 0.144307 Body force = (-1.63117 , -11.225 , -0) 
 At (0.775 , 0.025 , 0.05 )  Deviation = 0.138929 Body force = (-1.51244 , -10.8163 , -0) 
 At (0.825 , 0.025 , 0.05 )  Deviation = 0.133776 Body force = (-1.40293 , -10.4245 , -0) 
 At (0.875 , 0.025 , 0.05 )  Deviation = 0.128853 Body force = (-1.30227 , -10.0506 , -0) 
 At (0.925 , 0.025 , 0.05 )  Deviation = 0.12417 Body force = (-1.21009 , -9.69534 , -0) 
 At (0.975 , 0.025 , 0.05 )  Deviation = 0.119736 Body force = (-1.12603 , -9.35927 , -0) 
 At (1.025 , 0.025 , 0.05 )  Deviation = 0.115565 Body force = (-1.04973 , -9.04305 , -0) 
 At (1.075 , 0.025 , 0.05 )  Deviation = 0.111664 Body force = (-0.980841 , -8.74728 , -0) 
 At (1.125 , 0.025 , 0.05 )  Deviation = 0.108044 Body force = (-0.918979 , -8.47247 , -0) 
 At (1.175 , 0.025 , 0.05 )  Deviation = 0.104709 Body force = (-0.863754 , -8.21893 , -0) 
 At (1.225 , 0.025 , 0.05 )  Deviation = 0.10166 Body force = (-0.814747 , -7.98679 , -0) 
 At (1.275 , 0.025 , 0.05 )  Deviation = 0.0988956 Body force = (-0.771519 , -7.7759 , -0) 
 At (1.325 , 0.025 , 0.05 )  Deviation = 0.0964089 Body force = (-0.733618 , -7.58586 , -0) 
 At (1.375 , 0.025 , 0.05 )  Deviation = 0.0941898 Body force = (-0.700582 , -7.41597 , -0) 
 At (1.425 , 0.025 , 0.05 )  Deviation = 0.0922258 Body force = (-0.671972 , -7.26549 , -0) 
 At (1.475 , 0.025 , 0.05 )  Deviation = 0.090494 Body force = (-0.647108 , -7.13131 , -0) 
 At (1.525 , 0.025 , 0.05 )  Deviation = 0 Body force = (0 , 0 , 0) 
 At (1.575 , 0.025 , 0.05 )  Deviation = 9.99645 Body force = (0 , 0 , 0) 
 At (1.625 , 0.025 , 0.05 )  Deviation = -0.757929 Body force = (0 , 0 , 0) 
 At (1.675 , 0.025 , 0.05 )  Deviation = 0 Body force = (0 , 0 , 0) 
 At (1.725 , 0.025 , 0.05 )  Deviation = 9.99723 Body force = (0 , 0 , 0) 
 At (1.775 , 0.025 , 0.05 )  Deviation = -0.782984 Body force = (0 , 0 , 0) 
 At (1.825 , 0.025 , 0.05 )  Deviation = 0 Body force = (0 , 0 , 0) 
 At (1.875 , 0.025 , 0.05 )  Deviation = 9.99788 Body force = (0 , 0 , 0) 
 At (1.925 , 0.025 , 0.05 )  Deviation = -0.805346 Body force = (0 , 0 , 0) 
 At (1.975 , 0.025 , 0.05 )  Deviation = 0 Body force = (0 , 0 , 0) 
 At (0.025 , 0.075 , 0.05 )  Deviation = 9.99841 Body force = (0 , 0 , 0) 
 At (0.075 , 0.075 , 0.05 )  Deviation = -0.825147 Body force = (0 , 0 , 0) 
 At (0.125 , 0.075 , 0.05 )  Deviation = 0 Body force = (0 , 0 , 0) 
 At (0.175 , 0.075 , 0.05 )  Deviation = 9.99852 Body force = (0 , 0 , 0) 
 At (0.225 , 0.075 , 0.05 )  Deviation = -0.842533 Body force = (0 , 0 , 0) 
 At (0.275 , 0.075 , 0.05 )  Deviation = 0 Body force = (0 , 0 , 0) 
 At (0.325 , 0.075 , 0.05 )  Deviation = 10.0006 Body force = (0 , 0 , 0) 
 At (0.375 , 0.075 , 0.05 )  Deviation = -0.819986 Body force = (0 , 0 , 0) 
 At (0.425 , 0.075 , 0.05 )  Deviation = 0 Body force = (0 , 0 , 0) 
 At (0.475 , 0.075 , 0.05 )  Deviation = 10.0005 Body force = (0 , 0 , 0) 
 At (0.525 , 0.075 , 0.05 )  Deviation = 0.168024 Body force = (-2.20634 , -13.0073 , -0) 
 At (0.575 , 0.075 , 0.05 )  Deviation = 0.161757 Body force = (-2.04622 , -12.5394 , -0) 
 At (0.625 , 0.075 , 0.05 )  Deviation = 0.15572 Body force = (-1.8977 , -12.0879 , -0) 
 At (0.675 , 0.075 , 0.05 )  Deviation = 0.149905 Body force = (-1.75951 , -11.6495 , -0) 
 At (0.725 , 0.075 , 0.05 )  Deviation = 0.144307 Body force = (-1.63119 , -11.225 , -0) 
 At (0.775 , 0.075 , 0.05 )  Deviation = 0.138929 Body force = (-1.51243 , -10.8162 , -0) 
 At (0.825 , 0.075 , 0.05 )  Deviation = 0.133774 Body force = (-1.40289 , -10.4244 , -0) 
 At (0.875 , 0.075 , 0.05 )  Deviation = 0.12885 Body force = (-1.30222 , -10.0504 , -0) 
 At (0.925 , 0.075 , 0.05 )  Deviation = 0.124167 Body force = (-1.21003 , -9.69511 , -0) 
 At (0.975 , 0.075 , 0.05 )  Deviation = 0.119734 Body force = (-1.12598 , -9.35906 , -0) 
 At (1.025 , 0.075 , 0.05 )  Deviation = 0.115563 Body force = (-1.0497 , -9.04289 , -0) 
 At (1.075 , 0.075 , 0.05 )  Deviation = 0.111663 Body force = (-0.980817 , -8.74718 , -0) 
 At (1.125 , 0.075 , 0.05 )  Deviation = 0.108044 Body force = (-0.918968 , -8.47241 , -0) 
 At (1.175 , 0.075 , 0.05 )  Deviation = 0.104709 Body force = (-0.863751 , -8.21892 , -0) 
 At (1.225 , 0.075 , 0.05 )  Deviation = 0.10166 Body force = (-0.814748 , -7.98679 , -0) 
 At (1.275 , 0.075 , 0.05 )  Deviation = 0.0988957 Body force = (-0.77152 , -7.7759 , -0) 
 At (1.325 , 0.075 , 0.05 )  Deviation = 0.0964089 Body force = (-0.733619 , -7.58586 , -0) 
 At (1.375 , 0.075 , 0.05 )  Deviation = 0.0941897 Body force = (-0.700581 , -7.41597 , -0) 
 At (1.425 , 0.075 , 0.05 )  Deviation = 0.0922254 Body force = (-0.671965 , -7.26545 , -0) 
 At (1.475 , 0.075 , 0.05 )  Deviation = 0.0904928 Body force = (-0.64709 , -7.13121 , -0) 
 At (1.525 , 0.075 , 0.05 )  Deviation = 10.0064 Body force = (0 , 0 , 0) 
 At (1.575 , 0.075 , 0.05 )  Deviation = -0.557763 Body force = (0 , 0 , 0) 
 At (1.625 , 0.075 , 0.05 )  Deviation = 0 Body force = (0 , 0 , 0) 
 At (1.675 , 0.075 , 0.05 )  Deviation = 10.0067 Body force = (0 , 0 , 0) 
 At (1.725 , 0.075 , 0.05 )  Deviation = -0.519222 Body force = (0 , 0 , 0) 
 At (1.775 , 0.075 , 0.05 )  Deviation = 0 Body force = (0 , 0 , 0) 
 At (1.825 , 0.075 , 0.05 )  Deviation = 10 Body force = (0 , 0 , 0) 
 At (1.875 , 0.075 , 0.05 )  Deviation = 3.79654e-06 Body force = (0 , 0 , 0) 
 At (1.925 , 0.075 , 0.05 )  Deviation = 0 Body force = (0 , 0 , 0) 
 At (1.975 , 0.075 , 0.05 )  Deviation = 9.99998 Body force = (0 , 0 , 0) 
 At (0.025 , 0.125 , 0.05 )  Deviation = 1.60484e-05 Body force = (0 , 0 , 0) 
 At (0.075 , 0.125 , 0.05 )  Deviation = 0 Body force = (0 , 0 , 0) 
 At (0.125 , 0.125 , 0.05 )  Deviation = 9.99992 Body force = (0 , 0 , 0) 
 At (0.175 , 0.125 , 0.05 )  Deviation = 2.69139e-05 Body force = (0 , 0 , 0) 
 At (0.225 , 0.125 , 0.05 )  Deviation = 0 Body force = (0 , 0 , 0) 
 At (0.275 , 0.125 , 0.05 )  Deviation = 9.99984 Body force = (0 , 0 , 0) 
 At (0.325 , 0.125 , 0.05 )  Deviation = 3.6252e-05 Body force = (0 , 0 , 0) 
 At (0.375 , 0.125 , 0.05 )  Deviation = 0 Body force = (0 , 0 , 0) 
 At (0.425 , 0.125 , 0.05 )  Deviation = 9.99973 Body force = (0 , 0 , 0) 
 At (0.475 , 0.125 , 0.05 )  Deviation = 4.39992e-05 Body force = (0 , 0 , 0) 
 At (0.525 , 0.125 , 0.05 )  Deviation = 0.168025 Body force = (-2.20638 , -13.0074 , -0) 
 At (0.575 , 0.125 , 0.05 )  Deviation = 0.161758 Body force = (-2.04625 , -12.5395 , -0) 
 At (0.625 , 0.125 , 0.05 )  Deviation = 0.155721 Body force = (-1.89771 , -12.088 , -0) 
 At (0.675 , 0.125 , 0.05 )  Deviation = 0.149904 Body force = (-1.7595 , -11.6494 , -0) 
 At (0.725 , 0.125 , 0.05 )  Deviation = 0.144306 Body force = (-1.63117 , -11.2249 , -0) 
 At (0.775 , 0.125 , 0.05 )  Deviation = 0.138928 Body force = (-1.5124 , -10.8161 , -0) 
 At (0.825 , 0.125 , 0.05 )  Deviation = 0.133773 Body force = (-1.40286 , -10.4243 , -0) 
 At (0.875 , 0.125 , 0.05 )  Deviation = 0.128849 Body force = (-1.30219 , -10.0503 , -0) 
 At (0.925 , 0.125 , 0.05 )  Deviation = 0.124166 Body force = (-1.21002 , -9.69504 , -0) 
 At (0.975 , 0.125 , 0.05 )  Deviation = 0.119733 Body force = (-1.12597 , -9.35902 , -0) 
 At (1.025 , 0.125 , 0.05 )  Deviation = 0.115562 Body force = (-1.04969 , -9.04287 , -0) 
 At (1.075 , 0.125 , 0.05 )  Deviation = 0.111663 Body force = (-0.980818 , -8.74718 , -0) 
 At (1.125 , 0.125 , 0.05 )  Deviation = 0.108044 Body force = (-0.91897 , -8.47243 , -0) 
 At (1.175 , 0.125 , 0.05 )  Deviation = 0.104709 Body force = (-0.863753 , -8.21893 , -0) 
 At (1.225 , 0.125 , 0.05 )  Deviation = 0.10166 Body force = (-0.814748 , -7.98679 , -0) 
 At (1.275 , 0.125 , 0.05 )  Deviation = 0.0988956 Body force = (-0.771518 , -7.77589 , -0) 
 At (1.325 , 0.125 , 0.05 )  Deviation = 0.0964085 Body force = (-0.733613 , -7.58583 , -0) 
 At (1.375 , 0.125 , 0.05 )  Deviation = 0.0941891 Body force = (-0.700571 , -7.41592 , -0) 
 At (1.425 , 0.125 , 0.05 )  Deviation = 0.0922245 Body force = (-0.671951 , -7.26537 , -0) 
 At (1.475 , 0.125 , 0.05 )  Deviation = 0.0904918 Body force = (-0.647075 , -7.13112 , -0) 
 At (1.525 , 0.125 , 0.05 )  Deviation = -0.127684 Body force = (0 , 0 , 0) 
 At (1.575 , 0.125 , 0.05 )  Deviation = 0 Body force = (0 , 0 , 0) 
 At (1.625 , 0.125 , 0.05 )  Deviation = 9.99325 Body force = (0 , 0 , 0) 
 At (1.675 , 0.125 , 0.05 )  Deviation = -0.18811 Body force = (0 , 0 , 0) 
 At (1.725 , 0.125 , 0.05 )  Deviation = 0 Body force = (0 , 0 , 0) 
 At (1.775 , 0.125 , 0.05 )  Deviation = 9.99453 Body force = (0 , 0 , 0) 
 At (1.825 , 0.125 , 0.05 )  Deviation = -0.246313 Body force = (0 , 0 , 0) 
 At (1.875 , 0.125 , 0.05 )  Deviation = 0 Body force = (0 , 0 , 0) 
 At (1.925 , 0.125 , 0.05 )  Deviation = 9.99446 Body force = (0 , 0 , 0) 
 At (1.975 , 0.125 , 0.05 )  Deviation = -0.302317 Body force = (0 , 0 , 0) 
 At (0.025 , 0.175 , 0.05 )  Deviation = 0 Body force = (0 , 0 , 0) 
 At (0.075 , 0.175 , 0.05 )  Deviation = 9.99352 Body force = (0 , 0 , 0) 
 At (0.125 , 0.175 , 0.05 )  Deviation = -0.356123 Body force = (0 , 0 , 0) 
 At (0.175 , 0.175 , 0.05 )  Deviation = 0 Body force = (0 , 0 , 0) 
 At (0.225 , 0.175 , 0.05 )  Deviation = 9.99235 Body force = (0 , 0 , 0) 
 At (0.275 , 0.175 , 0.05 )  Deviation = -0.407703 Body force = (0 , 0 , 0) 
 At (0.325 , 0.175 , 0.05 )  Deviation = 0 Body force = (0 , 0 , 0) 
 At (0.375 , 0.175 , 0.05 )  Deviation = 9.99144 Body force = (0 , 0 , 0) 
 At (0.425 , 0.175 , 0.05 )  Deviation = -0.457 Body force = (0 , 0 , 0) 
 At (0.475 , 0.175 , 0.05 )  Deviation = 0 Body force = (0 , 0 , 0) 
 At (0.525 , 0.175 , 0.05 )  Deviation = 0.168026 Body force = (-2.2064 , -13.0075 , -0) 
 At (0.575 , 0.175 , 0.05 )  Deviation = 0.161759 Body force = (-2.04626 , -12.5395 , -0) 
 At (0.625 , 0.175 , 0.05 )  Deviation = 0.15572 Body force = (-1.8977 , -12.0879 , -0) 
 At (0.675 , 0.175 , 0.05 )  Deviation = 0.149904 Body force = (-1.75949 , -11.6494 , -0) 
 At (0.725 , 0.175 , 0.05 )  Deviation = 0.144306 Body force = (-1.63116 , -11.2249 , -0) 
 At (0.775 , 0.175 , 0.05 )  Deviation = 0.138927 Body force = (-1.51239 , -10.8161 , -0) 
 At (0.825 , 0.175 , 0.05 )  Deviation = 0.133773 Body force = (-1.40286 , -10.4243 , -0) 
 At (0.875 , 0.175 , 0.05 )  Deviation = 0.128849 Body force = (-1.30219 , -10.0504 , -0) 
 At (0.925 , 0.175 , 0.05 )  Deviation = 0.124166 Body force = (-1.21002 , -9.69507 , -0) 
 At (0.975 , 0.175 , 0.05 )  Deviation = 0.119734 Body force = (-1.12598 , -9.35905 , -0) 
 At (1.025 , 0.175 , 0.05 )  Deviation = 0.115563 Body force = (-1.0497 , -9.04291 , -0) 
 At (1.075 , 0.175 , 0.05 )  Deviation = 0.111663 Body force = (-0.980824 , -8.74721 , -0) 
 At (1.125 , 0.175 , 0.05 )  Deviation = 0.108044 Body force = (-0.918975 , -8.47245 , -0) 
 At (1.175 , 0.175 , 0.05 )  Deviation = 0.104709 Body force = (-0.863757 , -8.21894 , -0) 
 At (1.225 , 0.175 , 0.05 )  Deviation = 0.10166 Body force = (-0.814751 , -7.9868 , -0) 
 At (1.275 , 0.175 , 0.05 )  Deviation = 0.0988957 Body force = (-0.77152 , -7.7759 , -0) 
 At (1.325 , 0.175 , 0.05 )  Deviation = 0.0964086 Body force = (-0.733614 , -7.58583 , -0) 
 At (1.375 , 0.175 , 0.05 )  Deviation = 0.094189 Body force = (-0.70057 , -7.41591 , -0) 
 At (1.425 , 0.175 , 0.05 )  Deviation = 0.0922244 Body force = (-0.671949 , -7.26536 , -0) 
 At (1.475 , 0.175 , 0.05 )  Deviation = 0.0904918 Body force = (-0.647075 , -7.13112 , -0) 
 At (1.525 , 0.175 , 0.05 )  Deviation = 0 Body force = (0 , 0 , 0) 
 At (1.575 , 0.175 , 0.05 )  Deviation = 9.99645 Body force = (0 , 0 , 0) 
 At (1.625 , 0.175 , 0.05 )  Deviation = -0.757929 Body force = (0 , 0 , 0) 
 At (1.675 , 0.175 , 0.05 )  Deviation = 0 Body force = (0 , 0 , 0) 
 At (1.725 , 0.175 , 0.05 )  Deviation = 9.99723 Body force = (0 , 0 , 0) 
 At (1.775 , 0.175 , 0.05 )  Deviation = -0.782982 Body force = (0 , 0 , 0) 
 At (1.825 , 0.175 , 0.05 )  Deviation = 0 Body force = (0 , 0 , 0) 
 At (1.875 , 0.175 , 0.05 )  Deviation = 9.99788 Body force = (0 , 0 , 0) 
 At (1.925 , 0.175 , 0.05 )  Deviation = -0.805343 Body force = (0 , 0 , 0) 
 At (1.975 , 0.175 , 0.05 )  Deviation = 0 Body force = (0 , 0 , 0) 
 At (0.025 , 0.225 , 0.05 )  Deviation = 9.99842 Body force = (0 , 0 , 0) 
 At (0.075 , 0.225 , 0.05 )  Deviation = -0.825144 Body force = (0 , 0 , 0) 
 At (0.125 , 0.225 , 0.05 )  Deviation = 0 Body force = (0 , 0 , 0) 
 At (0.175 , 0.225 , 0.05 )  Deviation = 9.99853 Body force = (0 , 0 , 0) 
 At (0.225 , 0.225 , 0.05 )  Deviation = -0.842529 Body force = (0 , 0 , 0) 
 At (0.275 , 0.225 , 0.05 )  Deviation = 0 Body force = (0 , 0 , 0) 
 At (0.325 , 0.225 , 0.05 )  Deviation = 10.0006 Body force = (0 , 0 , 0) 
 At (0.375 , 0.225 , 0.05 )  Deviation = -0.819981 Body force = (0 , 0 , 0) 
 At (0.425 , 0.225 , 0.05 )  Deviation = 0 Body force = (0 , 0 , 0) 
 At (0.475 , 0.225 , 0.05 )  Deviation = 10.0005 Body force = (0 , 0 , 0) 
 At (0.525 , 0.225 , 0.05 )  Deviation = 0.168026 Body force = (-2.20641 , -13.0075 , -0) 
 At (0.575 , 0.225 , 0.05 )  Deviation = 0.161759 Body force = (-2.04626 , -12.5396 , -0) 
 At (0.625 , 0.225 , 0.05 )  Deviation = 0.15572 Body force = (-1.89771 , -12.088 , -0) 
 At (0.675 , 0.225 , 0.05 )  Deviation = 0.149904 Body force = (-1.75949 , -11.6494 , -0) 
 At (0.725 , 0.225 , 0.05 )  Deviation = 0.144306 Body force = (-1.63116 , -11.2249 , -0) 
 At (0.775 , 0.225 , 0.05 )  Deviation = 0.138927 Body force = (-1.5124 , -10.8161 , -0) 
 At (0.825 , 0.225 , 0.05 )  Deviation = 0.133773 Body force = (-1.40286 , -10.4243 , -0) 
 At (0.875 , 0.225 , 0.05 )  Deviation = 0.128849 Body force = (-1.3022 , -10.0504 , -0) 
 At (0.925 , 0.225 , 0.05 )  Deviation = 0.124166 Body force = (-1.21002 , -9.69508 , -0) 
 At (0.975 , 0.225 , 0.05 )  Deviation = 0.119733 Body force = (-1.12598 , -9.35905 , -0) 
 At (1.025 , 0.225 , 0.05 )  Deviation = 0.115562 Body force = (-1.0497 , -9.0429 , -0) 
 At (1.075 , 0.225 , 0.05 )  Deviation = 0.111663 Body force = (-0.980821 , -8.7472 , -0) 
 At (1.125 , 0.225 , 0.05 )  Deviation = 0.108044 Body force = (-0.918973 , -8.47244 , -0) 
 At (1.175 , 0.225 , 0.05 )  Deviation = 0.104709 Body force = (-0.863756 , -8.21894 , -0) 
 At (1.225 , 0.225 , 0.05 )  Deviation = 0.10166 Body force = (-0.814751 , -7.9868 , -0) 
 At (1.275 , 0.225 , 0.05 )  Deviation = 0.0988958 Body force = (-0.77152 , -7.7759 , -0) 
 At (1.325 , 0.225 , 0.05 )  Deviation = 0.0964087 Body force = (-0.733615 , -7.58584 , -0) 
 At (1.375 , 0.225 , 0.05 )  Deviation = 0.0941892 Body force = (-0.700571 , -7.41591 , -0) 
 At (1.425 , 0.225 , 0.05 )  Deviation = 0.0922245 Body force = (-0.671951 , -7.26537 , -0) 
 At (1.475 , 0.225 , 0.05 )  Deviation = 0.0904921 Body force = (-0.647078 , -7.13113 , -0) 
 At (1.525 , 0.225 , 0.05 )  Deviation = 10.0064 Body force = (0 , 0 , 0) 
 At (1.575 , 0.225 , 0.05 )  Deviation = -0.557759 Body force = (0 , 0 , 0) 
 At (1.625 , 0.225 , 0.05 )  Deviation = 0 Body force = (0 , 0 , 0) 
 At (1.675 , 0.225 , 0.05 )  Deviation = 10.0067 Body force = (0 , 0 , 0) 
 At (1.725 , 0.225 , 0.05 )  Deviation = -0.519218 Body force = (0 , 0 , 0) 
 At (1.775 , 0.225 , 0.05 )  Deviation = 0 Body force = (0 , 0 , 0) 
 At (1.825 , 0.225 , 0.05 )  Deviation = 10 Body force = (0 , 0 , 0) 
 At (1.875 , 0.225 , 0.05 )  Deviation = 4.40821e-06 Body force = (0 , 0 , 0) 
 At (1.925 , 0.225 , 0.05 )  Deviation = 0 Body force = (0 , 0 , 0) 
 At (1.975 , 0.225 , 0.05 )  Deviation = 9.99998 Body force = (0 , 0 , 0) 
 At (0.025 , 0.275 , 0.05 )  Deviation = 1.86746e-05 Body force = (0 , 0 , 0) 
 At (0.075 , 0.275 , 0.05 )  Deviation = 0 Body force = (0 , 0 , 0) 
 At (0.125 , 0.275 , 0.05 )  Deviation = 9.99993 Body force = (0 , 0 , 0) 
 At (0.175 , 0.275 , 0.05 )  Deviation = 3.14844e-05 Body force = (0 , 0 , 0) 
 At (0.225 , 0.275 , 0.05 )  Deviation = 0 Body force = (0 , 0 , 0) 
 At (0.275 , 0.275 , 0.05 )  Deviation = 9.99984 Body force = (0 , 0 , 0) 
 At (0.325 , 0.275 , 0.05 )  Deviation = 4.2676e-05 Body force = (0 , 0 , 0) 
 At (0.375 , 0.275 , 0.05 )  Deviation = 0 Body force = (0 , 0 , 0) 
 At (0.425 , 0.275 , 0.05 )  Deviation = 9.99974 Body force = (0 , 0 , 0) 
 At (0.475 , 0.275 , 0.05 )  Deviation = 5.20299e-05 Body force = (0 , 0 , 0) 
 At (0.525 , 0.275 , 0.05 )  Deviation = 0.168027 Body force = (-2.20642 , -13.0076 , -0) 
 At (0.575 , 0.275 , 0.05 )  Deviation = 0.161759 Body force = (-2.04628 , -12.5396 , -0) 
 At (0.625 , 0.275 , 0.05 )  Deviation = 0.155721 Body force = (-1.89771 , -12.088 , -0) 
 At (0.675 , 0.275 , 0.05 )  Deviation = 0.149904 Body force = (-1.7595 , -11.6494 , -0) 
 At (0.725 , 0.275 , 0.05 )  Deviation = 0.144306 Body force = (-1.63116 , -11.2249 , -0) 
 At (0.775 , 0.275 , 0.05 )  Deviation = 0.138927 Body force = (-1.5124 , -10.8161 , -0) 
 At (0.825 , 0.275 , 0.05 )  Deviation = 0.133773 Body force = (-1.40286 , -10.4243 , -0) 
 At (0.875 , 0.275 , 0.05 )  Deviation = 0.128849 Body force = (-1.30219 , -10.0503 , -0) 
 At (0.925 , 0.275 , 0.05 )  Deviation = 0.124166 Body force = (-1.21002 , -9.69505 , -0) 
 At (0.975 , 0.275 , 0.05 )  Deviation = 0.119733 Body force = (-1.12597 , -9.35902 , -0) 
 At (1.025 , 0.275 , 0.05 )  Deviation = 0.115562 Body force = (-1.04969 , -9.04287 , -0) 
 At (1.075 , 0.275 , 0.05 )  Deviation = 0.111663 Body force = (-0.980814 , -8.74717 , -0) 
 At (1.125 , 0.275 , 0.05 )  Deviation = 0.108043 Body force = (-0.918967 , -8.47241 , -0) 
 At (1.175 , 0.275 , 0.05 )  Deviation = 0.104709 Body force = (-0.86375 , -8.21891 , -0) 
 At (1.225 , 0.275 , 0.05 )  Deviation = 0.10166 Body force = (-0.814746 , -7.98678 , -0) 
 At (1.275 , 0.275 , 0.05 )  Deviation = 0.0988956 Body force = (-0.771517 , -7.77588 , -0) 
 At (1.325 , 0.275 , 0.05 )  Deviation = 0.0964086 Body force = (-0.733612 , -7.58582 , -0) 
 At (1.375 , 0.275 , 0.05 )  Deviation = 0.094189 Body force = (-0.700569 , -7.4159 , -0) 
 At (1.425 , 0.275 , 0.05 )  Deviation = 0.0922245 Body force = (-0.67195 , -7.26536 , -0) 
 At (1.475 , 0.275 , 0.05 )  Deviation = 0.090492 Body force = (-0.647077 , -7.13112 , -0) 
 At (1.525 , 0.275 , 0.05 )  Deviation = -0.127677 Body force = (0 , 0 , 0) 
 At (1.575 , 0.275 , 0.05 )  Deviation = 0 Body force = (0 , 0 , 0) 
 At (1.625 , 0.275 , 0.05 )  Deviation = 9.99325 Body force = (0 , 0 , 0) 
 At (1.675 , 0.275 , 0.05 )  Deviation = -0.188104 Body force = (0 , 0 , 0) 
 At (1.725 , 0.275 , 0.05 )  Deviation = 0 Body force = (0 , 0 , 0) 
 At (1.775 , 0.275 , 0.05 )  Deviation = 9.99452 Body force = (0 , 0 , 0) 
 At (1.825 , 0.275 , 0.05 )  Deviation = -0.246307 Body force = (0 , 0 , 0) 
 At (1.875 , 0.275 , 0.05 )  Deviation = 0 Body force = (0 , 0 , 0) 
 At (1.925 , 0.275 , 0.05 )  Deviation = 9.99446 Body force = (0 , 0 , 0) 
 At (1.975 , 0.275 , 0.05 )  Deviation = -0.302312 Body force = (0 , 0 , 0) 
 At (0.025 , 0.325 , 0.05 )  Deviation = 0 Body force = (0 , 0 , 0) 
 At (0.075 , 0.325 , 0.05 )  Deviation = 9.99351 Body force = (0 , 0 , 0) 
 At (0.125 , 0.325 , 0.05 )  Deviation = -0.356119 Body force = (0 , 0 , 0) 
 At (0.175 , 0.325 , 0.05 )  Deviation = 0 Body force = (0 , 0 , 0) 
 At (0.225 , 0.325 , 0.05 )  Deviation = 9.99235 Body force = (0 , 0 , 0) 
 At (0.275 , 0.325 , 0.05 )  Deviation = -0.407702 Body force = (0 , 0 , 0) 
 At (0.325 , 0.325 , 0.05 )  Deviation = 0 Body force = (0 , 0 , 0) 
 At (0.375 , 0.325 , 0.05 )  Deviation = 9.99144 Body force = (0 , 0 , 0) 
 At (0.425 , 0.325 , 0.05 )  Deviation = -0.457001 Body force = (0 , 0 , 0) 
 At (0.475 , 0.325 , 0.05 )  Deviation = 0 Body force = (0 , 0 , 0) 
 At (0.525 , 0.325 , 0.05 )  Deviation = 0.168027 Body force = (-2.20644 , -13.0076 , -0) 
 At (0.575 , 0.325 , 0.05 )  Deviation = 0.16176 Body force = (-2.04628 , -12.5396 , -0) 
 At (0.625 , 0.325 , 0.05 )  Deviation = 0.155721 Body force = (-1.89772 , -12.088 , -0) 
 At (0.675 , 0.325 , 0.05 )  Deviation = 0.149904 Body force = (-1.7595 , -11.6494 , -0) 
 At (0.725 , 0.325 , 0.05 )  Deviation = 0.144306 Body force = (-1.63116 , -11.2249 , -0) 
 At (0.775 , 0.325 , 0.05 )  Deviation = 0.138928 Body force = (-1.5124 , -10.8161 , -0) 
 At (0.825 , 0.325 , 0.05 )  Deviation = 0.133773 Body force = (-1.40286 , -10.4243 , -0) 
 At (0.875 , 0.325 , 0.05 )  Deviation = 0.128849 Body force = (-1.30219 , -10.0503 , -0) 
 At (0.925 , 0.325 , 0.05 )  Deviation = 0.124165 Body force = (-1.21002 , -9.69505 , -0) 
 At (0.975 , 0.325 , 0.05 )  Deviation = 0.119733 Body force = (-1.12597 , -9.35902 , -0) 
 At (1.025 , 0.325 , 0.05 )  Deviation = 0.115562 Body force = (-1.04969 , -9.04286 , -0) 
 At (1.075 , 0.325 , 0.05 )  Deviation = 0.111663 Body force = (-0.980812 , -8.74716 , -0) 
 At (1.125 , 0.325 , 0.05 )  Deviation = 0.108043 Body force = (-0.918964 , -8.4724 , -0) 
 At (1.175 , 0.325 , 0.05 )  Deviation = 0.104709 Body force = (-0.863749 , -8.2189 , -0) 
 At (1.225 , 0.325 , 0.05 )  Deviation = 0.10166 Body force = (-0.814745 , -7.98677 , -0) 
 At (1.275 , 0.325 , 0.05 )  Deviation = 0.0988956 Body force = (-0.771517 , -7.77588 , -0) 
 At (1.325 , 0.325 , 0.05 )  Deviation = 0.0964086 Body force = (-0.733613 , -7.58582 , -0) 
 At (1.375 , 0.325 , 0.05 )  Deviation = 0.0941892 Body force = (-0.70057 , -7.4159 , -0) 
 At (1.425 , 0.325 , 0.05 )  Deviation = 0.0922246 Body force = (-0.671952 , -7.26537 , -0) 
 At (1.475 , 0.325 , 0.05 )  Deviation = 0.0904923 Body force = (-0.64708 , -7.13114 , -0) 
 At (1.525 , 0.325 , 0.05 )  Deviation = 0 Body force = (0 , 0 , 0) 
 At (1.575 , 0.325 , 0.05 )  Deviation = 9.99645 Body force = (0 , 0 , 0) 
 At (1.625 , 0.325 , 0.05 )  Deviation = -0.757929 Body force = (0 , 0 , 0) 
 At (1.675 , 0.325 , 0.05 )  Deviation = 0 Body force = (0 , 0 , 0) 
 At (1.725 , 0.325 , 0.05 )  Deviation = 9.99724 Body force = (0 , 0 , 0) 
 At (1.775 , 0.325 , 0.05 )  Deviation = -0.782981 Body force = (0 , 0 , 0) 
 At (1.825 , 0.325 , 0.05 )  Deviation = 0 Body force = (0 , 0 , 0) 
 At (1.875 , 0.325 , 0.05 )  Deviation = 9.99788 Body force = (0 , 0 , 0) 
 At (1.925 , 0.325 , 0.05 )  Deviation = -0.805341 Body force = (0 , 0 , 0) 
 At (1.975 , 0.325 , 0.05 )  Deviation = 0 Body force = (0 , 0 , 0) 
 At (0.025 , 0.375 , 0.05 )  Deviation = 9.99842 Body force = (0 , 0 , 0) 
 At (0.075 , 0.375 , 0.05 )  Deviation = -0.82514 Body force = (0 , 0 , 0) 
 At (0.125 , 0.375 , 0.05 )  Deviation = 0 Body force = (0 , 0 , 0) 
 At (0.175 , 0.375 , 0.05 )  Deviation = 9.99853 Body force = (0 , 0 , 0) 
 At (0.225 , 0.375 , 0.05 )  Deviation = -0.842525 Body force = (0 , 0 , 0) 
 At (0.275 , 0.375 , 0.05 )  Deviation = 0 Body force = (0 , 0 , 0) 
 At (0.325 , 0.375 , 0.05 )  Deviation = 10.0006 Body force = (0 , 0 , 0) 
 At (0.375 , 0.375 , 0.05 )  Deviation = -0.819978 Body force = (0 , 0 , 0) 
 At (0.425 , 0.375 , 0.05 )  Deviation = 0 Body force = (0 , 0 , 0) 
 At (0.475 , 0.375 , 0.05 )  Deviation = 10.0005 Body force = (0 , 0 , 0) 
 At (0.525 , 0.375 , 0.05 )  Deviation = 0.168027 Body force = (-2.20645 , -13.0077 , -0) 
 At (0.575 , 0.375 , 0.05 )  Deviation = 0.16176 Body force = (-2.0463 , -12.5397 , -0) 
 At (0.625 , 0.375 , 0.05 )  Deviation = 0.155721 Body force = (-1.89773 , -12.088 , -0) 
 At (0.675 , 0.375 , 0.05 )  Deviation = 0.149905 Body force = (-1.75951 , -11.6495 , -0) 
 At (0.725 , 0.375 , 0.05 )  Deviation = 0.144306 Body force = (-1.63117 , -11.2249 , -0) 
 At (0.775 , 0.375 , 0.05 )  Deviation = 0.138928 Body force = (-1.5124 , -10.8161 , -0) 
 At (0.825 , 0.375 , 0.05 )  Deviation = 0.133773 Body force = (-1.40286 , -10.4243 , -0) 
 At (0.875 , 0.375 , 0.05 )  Deviation = 0.128849 Body force = (-1.30219 , -10.0503 , -0) 
 At (0.925 , 0.375 , 0.05 )  Deviation = 0.124165 Body force = (-1.21001 , -9.69505 , -0) 
 At (0.975 , 0.375 , 0.05 )  Deviation = 0.119733 Body force = (-1.12597 , -9.35901 , -0) 
 At (1.025 , 0.375 , 0.05 )  Deviation = 0.115562 Body force = (-1.04969 , -9.04286 , -0) 
 At (1.075 , 0.375 , 0.05 )  Deviation = 0.111663 Body force = (-0.98081 , -8.74716 , -0) 
 At (1.125 , 0.375 , 0.05 )  Deviation = 0.108043 Body force = (-0.918962 , -8.4724 , -0) 
 At (1.175 , 0.375 , 0.05 )  Deviation = 0.104708 Body force = (-0.863746 , -8.2189 , -0) 
 At (1.225 , 0.375 , 0.05 )  Deviation = 0.10166 Body force = (-0.814743 , -7.98676 , -0) 
 At (1.275 , 0.375 , 0.05 )  Deviation = 0.0988955 Body force = (-0.771515 , -7.77587 , -0) 
 At (1.325 , 0.375 , 0.05 )  Deviation = 0.0964086 Body force = (-0.733612 , -7.58582 , -0) 
 At (1.375 , 0.375 , 0.05 )  Deviation = 0.0941892 Body force = (-0.700571 , -7.4159 , -0) 
 At (1.425 , 0.375 , 0.05 )  Deviation = 0.0922248 Body force = (-0.671954 , -7.26537 , -0) 
 At (1.475 , 0.375 , 0.05 )  Deviation = 0.0904925 Body force = (-0.647083 , -7.13115 , -0) 
 At (1.525 , 0.375 , 0.05 )  Deviation = 10.0064 Body force = (0 , 0 , 0) 
 At (1.575 , 0.375 , 0.05 )  Deviation = -0.557752 Body force = (0 , 0 , 0) 
 At (1.625 , 0.375 , 0.05 )  Deviation = 0 Body force = (0 , 0 , 0) 
 At (1.675 , 0.375 , 0.05 )  Deviation = 10.0067 Body force = (0 , 0 , 0) 
 At (1.725 , 0.375 , 0.05 )  Deviation = -0.519211 Body force = (0 , 0 , 0) 
 At (1.775 , 0.375 , 0.05 )  Deviation = 0 Body force = (0 , 0 , 0) 
 At (1.825 , 0.375 , 0.05 )  Deviation = 10 Body force = (0 , 0 , 0) 
 At (1.875 , 0.375 , 0.05 )  Deviation = 4.76745e-06 Body force = (0 , 0 , 0) 
 At (1.925 , 0.375 , 0.05 )  Deviation = 0 Body force = (0 , 0 , 0) 
 At (1.975 , 0.375 , 0.05 )  Deviation = 9.99998 Body force = (0 , 0 , 0) 
 At (0.025 , 0.425 , 0.05 )  Deviation = 2.01831e-05 Body force = (0 , 0 , 0) 
 At (0.075 , 0.425 , 0.05 )  Deviation = 0 Body force = (0 , 0 , 0) 
 At (0.125 , 0.425 , 0.05 )  Deviation = 9.99993 Body force = (0 , 0 , 0) 
 At (0.175 , 0.425 , 0.05 )  Deviation = 3.40348e-05 Body force = (0 , 0 , 0) 
 At (0.225 , 0.425 , 0.05 )  Deviation = 0 Body force = (0 , 0 , 0) 
 At (0.275 , 0.425 , 0.05 )  Deviation = 9.99985 Body force = (0 , 0 , 0) 
 At (0.325 , 0.425 , 0.05 )  Deviation = 4.62841e-05 Body force = (0 , 0 , 0) 
 At (0.375 , 0.425 , 0.05 )  Deviation = 0 Body force = (0 , 0 , 0) 
 At (0.425 , 0.425 , 0.05 )  Deviation = 9.99974 Body force = (0 , 0 , 0) 
 At (0.475 , 0.425 , 0.05 )  Deviation = 5.66561e-05 Body force = (0 , 0 , 0) 
 At (0.525 , 0.425 , 0.05 )  Deviation = 0.168028 Body force = (-2.20646 , -13.0077 , -0) 
 At (0.575 , 0.425 , 0.05 )  Deviation = 0.16176 Body force = (-2.04631 , -12.5397 , -0) 
 At (0.625 , 0.425 , 0.05 )  Deviation = 0.155722 Body force = (-1.89774 , -12.088 , -0) 
 At (0.675 , 0.425 , 0.05 )  Deviation = 0.149905 Body force = (-1.75951 , -11.6495 , -0) 
 At (0.725 , 0.425 , 0.05 )  Deviation = 0.144307 Body force = (-1.63117 , -11.2249 , -0) 
 At (0.775 , 0.425 , 0.05 )  Deviation = 0.138928 Body force = (-1.5124 , -10.8161 , -0) 
 At (0.825 , 0.425 , 0.05 )  Deviation = 0.133773 Body force = (-1.40286 , -10.4243 , -0) 
 At (0.875 , 0.425 , 0.05 )  Deviation = 0.128849 Body force = (-1.30219 , -10.0503 , -0) 
 At (0.925 , 0.425 , 0.05 )  Deviation = 0.124165 Body force = (-1.21001 , -9.69505 , -0) 
 At (0.975 , 0.425 , 0.05 )  Deviation = 0.119733 Body force = (-1.12597 , -9.35901 , -0) 
 At (1.025 , 0.425 , 0.05 )  Deviation = 0.115562 Body force = (-1.04968 , -9.04285 , -0) 
 At (1.075 , 0.425 , 0.05 )  Deviation = 0.111662 Body force = (-0.980808 , -8.74715 , -0) 
 At (1.125 , 0.425 , 0.05 )  Deviation = 0.108043 Body force = (-0.91896 , -8.47239 , -0) 
 At (1.175 , 0.425 , 0.05 )  Deviation = 0.104708 Body force = (-0.863744 , -8.21889 , -0) 
 At (1.225 , 0.425 , 0.05 )  Deviation = 0.10166 Body force = (-0.814741 , -7.98676 , -0) 
 At (1.275 , 0.425 , 0.05 )  Deviation = 0.0988955 Body force = (-0.771514 , -7.77586 , -0) 
 At (1.325 , 0.425 , 0.05 )  Deviation = 0.0964086 Body force = (-0.733612 , -7.58581 , -0) 
 At (1.375 , 0.425 , 0.05 )  Deviation = 0.0941893 Body force = (-0.700572 , -7.4159 , -0) 
 At (1.425 , 0.425 , 0.05 )  Deviation = 0.0922249 Body force = (-0.671956 , -7.26538 , -0) 
 At (1.475 , 0.425 , 0.05 )  Deviation = 0.0904927 Body force = (-0.647086 , -7.13117 , -0) 
 At (1.525 , 0.425 , 0.05 )  Deviation = -0.127668 Body force = (0 , 0 , 0) 
 At (1.575 , 0.425 , 0.05 )  Deviation = 0 Body force = (0 , 0 , 0) 
 At (1.625 , 0.425 , 0.05 )  Deviation = 9.99324 Body force = (0 , 0 , 0) 
 At (1.675 , 0.425 , 0.05 )  Deviation = -0.188091 Body force = (0 , 0 , 0) 
 At (1.725 , 0.425 , 0.05 )  Deviation = 0 Body force = (0 , 0 , 0) 
 At (1.775 , 0.425 , 0.05 )  Deviation = 9.99452 Body force = (0 , 0 , 0) 
 At (1.825 , 0.425 , 0.05 )  Deviation = -0.246293 Body force = (0 , 0 , 0) 
 At (1.875 , 0.425 , 0.05 )  Deviation = 0 Body force = (0 , 0 , 0) 
 At (1.925 , 0.425 , 0.05 )  Deviation = 9.99445 Body force = (0 , 0 , 0) 
 At (1.975 , 0.425 , 0.05 )  Deviation = -0.302298 Body force = (0 , 0 , 0) 
 At (0.025 , 0.475 , 0.05 )  Deviation = 0 Body force = (0 , 0 , 0) 
 At (0.075 , 0.475 , 0.05 )  Deviation = 9.9935 Body force = (0 , 0 , 0) 
 At (0.125 , 0.475 , 0.05 )  Deviation = -0.356107 Body force = (0 , 0 , 0) 
 At (0.175 , 0.475 , 0.05 )  Deviation = 0 Body force = (0 , 0 , 0) 
 At (0.225 , 0.475 , 0.05 )  Deviation = 9.99234 Body force = (0 , 0 , 0) 
 At (0.275 , 0.475 , 0.05 )  Deviation = -0.407693 Body force = (0 , 0 , 0) 
 At (0.325 , 0.475 , 0.05 )  Deviation = 0 Body force = (0 , 0 , 0) 
 At (0.375 , 0.475 , 0.05 )  Deviation = 9.99143 Body force = (0 , 0 , 0) 
 At (0.425 , 0.475 , 0.05 )  Deviation = -0.456996 Body force = (0 , 0 , 0) 
 At (0.475 , 0.475 , 0.05 )  Deviation = 0 Body force = (0 , 0 , 0) 
 At (0.525 , 0.475 , 0.05 )  Deviation = 0.168029 Body force = (-2.20648 , -13.0078 , -0) 
 At (0.575 , 0.475 , 0.05 )  Deviation = 0.161761 Body force = (-2.04632 , -12.5397 , -0) 
 At (0.625 , 0.475 , 0.05 )  Deviation = 0.155722 Body force = (-1.89775 , -12.0881 , -0) 
 At (0.675 , 0.475 , 0.05 )  Deviation = 0.149905 Body force = (-1.75952 , -11.6495 , -0) 
 At (0.725 , 0.475 , 0.05 )  Deviation = 0.144307 Body force = (-1.63118 , -11.225 , -0) 
 At (0.775 , 0.475 , 0.05 )  Deviation = 0.138928 Body force = (-1.5124 , -10.8161 , -0) 
 At (0.825 , 0.475 , 0.05 )  Deviation = 0.133773 Body force = (-1.40287 , -10.4243 , -0) 
 At (0.875 , 0.475 , 0.05 )  Deviation = 0.128849 Body force = (-1.30219 , -10.0503 , -0) 
 At (0.925 , 0.475 , 0.05 )  Deviation = 0.124165 Body force = (-1.21002 , -9.69505 , -0) 
 At (0.975 , 0.475 , 0.05 )  Deviation = 0.119733 Body force = (-1.12597 , -9.35901 , -0) 
 At (1.025 , 0.475 , 0.05 )  Deviation = 0.115562 Body force = (-1.04968 , -9.04285 , -0) 
 At (1.075 , 0.475 , 0.05 )  Deviation = 0.111662 Body force = (-0.980807 , -8.74715 , -0) 
 At (1.125 , 0.475 , 0.05 )  Deviation = 0.108043 Body force = (-0.918958 , -8.47238 , -0) 
 At (1.175 , 0.475 , 0.05 )  Deviation = 0.104708 Body force = (-0.863742 , -8.21888 , -0) 
 At (1.225 , 0.475 , 0.05 )  Deviation = 0.10166 Body force = (-0.81474 , -7.98675 , -0) 
 At (1.275 , 0.475 , 0.05 )  Deviation = 0.0988954 Body force = (-0.771513 , -7.77585 , -0) 
 At (1.325 , 0.475 , 0.05 )  Deviation = 0.0964086 Body force = (-0.733612 , -7.58581 , -0) 
 At (1.375 , 0.475 , 0.05 )  Deviation = 0.0941894 Body force = (-0.700573 , -7.41591 , -0) 
 At (1.425 , 0.475 , 0.05 )  Deviation = 0.0922251 Body force = (-0.671958 , -7.26539 , -0) 
 At (1.475 , 0.475 , 0.05 )  Deviation = 0.0904929 Body force = (-0.647089 , -7.13118 , -0) 
 At (1.525 , 0.475 , 0.05 )  Deviation = 0 Body force = (0 , 0 , 0) 
 At (1.575 , 0.475 , 0.05 )  Deviation = 9.99645 Body force = (0 , 0 , 0) 
 At (1.625 , 0.475 , 0.05 )  Deviation = -0.757931 Body force = (0 , 0 , 0) 
 At (1.675 , 0.475 , 0.05 )  Deviation = 0 Body force = (0 , 0 , 0) 
 At (1.725 , 0.475 , 0.05 )  Deviation = 9.99724 Body force = (0 , 0 , 0) 
 At (1.775 , 0.475 , 0.05 )  Deviation = -0.782981 Body force = (0 , 0 , 0) 
 At (1.825 , 0.475 , 0.05 )  Deviation = 0 Body force = (0 , 0 , 0) 
 At (1.875 , 0.475 , 0.05 )  Deviation = 9.99789 Body force = (0 , 0 , 0) 
 At (1.925 , 0.475 , 0.05 )  Deviation = -0.805339 Body force = (0 , 0 , 0) 
 At (1.975 , 0.475 , 0.05 )  Deviation = 0 Body force = (0 , 0 , 0) 
 At (0.025 , 0.525 , 0.05 )  Deviation = 9.99842 Body force = (0 , 0 , 0) 
 At (0.075 , 0.525 , 0.05 )  Deviation = -0.825137 Body force = (0 , 0 , 0) 
 At (0.125 , 0.525 , 0.05 )  Deviation = 0 Body force = (0 , 0 , 0) 
 At (0.175 , 0.525 , 0.05 )  Deviation = 9.99853 Body force = (0 , 0 , 0) 
 At (0.225 , 0.525 , 0.05 )  Deviation = -0.842522 Body force = (0 , 0 , 0) 
 At (0.275 , 0.525 , 0.05 )  Deviation = 0 Body force = (0 , 0 , 0) 
 At (0.325 , 0.525 , 0.05 )  Deviation = 10.0006 Body force = (0 , 0 , 0) 
 At (0.375 , 0.525 , 0.05 )  Deviation = -0.819976 Body force = (0 , 0 , 0) 
 At (0.425 , 0.525 , 0.05 )  Deviation = 0 Body force = (0 , 0 , 0) 
 At (0.475 , 0.525 , 0.05 )  Deviation = 10.0005 Body force = (0 , 0 , 0) 
 At (0.525 , 0.525 , 0.05 )  Deviation = 0.168029 Body force = (-2.2065 , -13.0078 , -0) 
 At (0.575 , 0.525 , 0.05 )  Deviation = 0.161762 Body force = (-2.04633 , -12.5398 , -0) 
 At (0.625 , 0.525 , 0.05 )  Deviation = 0.155723 Body force = (-1.89776 , -12.0881 , -0) 
 At (0.675 , 0.525 , 0.05 )  Deviation = 0.149905 Body force = (-1.75953 , -11.6495 , -0) 
 At (0.725 , 0.525 , 0.05 )  Deviation = 0.144307 Body force = (-1.63118 , -11.225 , -0) 
 At (0.775 , 0.525 , 0.05 )  Deviation = 0.138928 Body force = (-1.51241 , -10.8161 , -0) 
 At (0.825 , 0.525 , 0.05 )  Deviation = 0.133773 Body force = (-1.40287 , -10.4243 , -0) 
 At (0.875 , 0.525 , 0.05 )  Deviation = 0.128849 Body force = (-1.30219 , -10.0503 , -0) 
 At (0.925 , 0.525 , 0.05 )  Deviation = 0.124166 Body force = (-1.21002 , -9.69505 , -0) 
 At (0.975 , 0.525 , 0.05 )  Deviation = 0.119733 Body force = (-1.12596 , -9.35901 , -0) 
 At (1.025 , 0.525 , 0.05 )  Deviation = 0.115562 Body force = (-1.04968 , -9.04285 , -0) 
 At (1.075 , 0.525 , 0.05 )  Deviation = 0.111662 Body force = (-0.980805 , -8.74714 , -0) 
 At (1.125 , 0.525 , 0.05 )  Deviation = 0.108043 Body force = (-0.918957 , -8.47237 , -0) 
 At (1.175 , 0.525 , 0.05 )  Deviation = 0.104708 Body force = (-0.86374 , -8.21887 , -0) 
 At (1.225 , 0.525 , 0.05 )  Deviation = 0.10166 Body force = (-0.814738 , -7.98674 , -0) 
 At (1.275 , 0.525 , 0.05 )  Deviation = 0.0988953 Body force = (-0.771512 , -7.77585 , -0) 
 At (1.325 , 0.525 , 0.05 )  Deviation = 0.0964086 Body force = (-0.733611 , -7.58581 , -0) 
 At (1.375 , 0.525 , 0.05 )  Deviation = 0.0941894 Body force = (-0.700573 , -7.41591 , -0) 
 At (1.425 , 0.525 , 0.05 )  Deviation = 0.0922252 Body force = (-0.67196 , -7.2654 , -0) 
 At (1.475 , 0.525 , 0.05 )  Deviation = 0.0904932 Body force = (-0.647093 , -7.1312 , -0) 
 At (1.525 , 0.525 , 0.05 )  Deviation = 10.0064 Body force = (0 , 0 , 0) 
 At (1.575 , 0.525 , 0.05 )  Deviation = -0.557744 Body force = (0 , 0 , 0) 
 At (1.625 , 0.525 , 0.05 )  Deviation = 0 Body force = (0 , 0 , 0) 
 At (1.675 , 0.525 , 0.05 )  Deviation = 10.0067 Body force = (0 , 0 , 0) 
 At (1.725 , 0.525 , 0.05 )  Deviation = -0.519201 Body force = (0 , 0 , 0) 
 At (1.775 , 0.525 , 0.05 )  Deviation = 0 Body force = (0 , 0 , 0) 
 At (1.825 , 0.525 , 0.05 )  Deviation = 10 Body force = (0 , 0 , 0) 
 At (1.875 , 0.525 , 0.05 )  Deviation = 4.73078e-06 Body force = (0 , 0 , 0) 
 At (1.925 , 0.525 , 0.05 )  Deviation = 0 Body force = (0 , 0 , 0) 
 At (1.975 , 0.525 , 0.05 )  Deviation = 9.99998 Body force = (0 , 0 , 0) 
 At (0.025 , 0.575 , 0.05 )  Deviation = 1.99927e-05 Body force = (0 , 0 , 0) 
 At (0.075 , 0.575 , 0.05 )  Deviation = 0 Body force = (0 , 0 , 0) 
 At (0.125 , 0.575 , 0.05 )  Deviation = 9.99993 Body force = (0 , 0 , 0) 
 At (0.175 , 0.575 , 0.05 )  Deviation = 3.35733e-05 Body force = (0 , 0 , 0) 
 At (0.225 , 0.575 , 0.05 )  Deviation = 0 Body force = (0 , 0 , 0) 
 At (0.275 , 0.575 , 0.05 )  Deviation = 9.99985 Body force = (0 , 0 , 0) 
 At (0.325 , 0.575 , 0.05 )  Deviation = 4.53981e-05 Body force = (0 , 0 , 0) 
 At (0.375 , 0.575 , 0.05 )  Deviation = 0 Body force = (0 , 0 , 0) 
 At (0.425 , 0.575 , 0.05 )  Deviation = 9.99975 Body force = (0 , 0 , 0) 
 At (0.475 , 0.575 , 0.05 )  Deviation = 5.51024e-05 Body force = (0 , 0 , 0) 
 At (0.525 , 0.575 , 0.05 )  Deviation = 0.16803 Body force = (-2.20652 , -13.0079 , -0) 
 At (0.575 , 0.575 , 0.05 )  Deviation = 0.161762 Body force = (-2.04635 , -12.5398 , -0) 
 At (0.625 , 0.575 , 0.05 )  Deviation = 0.155723 Body force = (-1.89776 , -12.0881 , -0) 
 At (0.675 , 0.575 , 0.05 )  Deviation = 0.149906 Body force = (-1.75953 , -11.6495 , -0) 
 At (0.725 , 0.575 , 0.05 )  Deviation = 0.144307 Body force = (-1.63118 , -11.225 , -0) 
 At (0.775 , 0.575 , 0.05 )  Deviation = 0.138928 Body force = (-1.51241 , -10.8161 , -0) 
 At (0.825 , 0.575 , 0.05 )  Deviation = 0.133773 Body force = (-1.40287 , -10.4243 , -0) 
 At (0.875 , 0.575 , 0.05 )  Deviation = 0.128849 Body force = (-1.30219 , -10.0503 , -0) 
 At (0.925 , 0.575 , 0.05 )  Deviation = 0.124166 Body force = (-1.21002 , -9.69505 , -0) 
 At (0.975 , 0.575 , 0.05 )  Deviation = 0.119733 Body force = (-1.12597 , -9.35901 , -0) 
 At (1.025 , 0.575 , 0.05 )  Deviation = 0.115562 Body force = (-1.04968 , -9.04285 , -0) 
 At (1.075 , 0.575 , 0.05 )  Deviation = 0.111662 Body force = (-0.980805 , -8.74714 , -0) 
 At (1.125 , 0.575 , 0.05 )  Deviation = 0.108043 Body force = (-0.918956 , -8.47237 , -0) 
 At (1.175 , 0.575 , 0.05 )  Deviation = 0.104708 Body force = (-0.863739 , -8.21886 , -0) 
 At (1.225 , 0.575 , 0.05 )  Deviation = 0.10166 Body force = (-0.814736 , -7.98673 , -0) 
 At (1.275 , 0.575 , 0.05 )  Deviation = 0.0988952 Body force = (-0.77151 , -7.77584 , -0) 
 At (1.325 , 0.575 , 0.05 )  Deviation = 0.0964086 Body force = (-0.733611 , -7.5858 , -0) 
 At (1.375 , 0.575 , 0.05 )  Deviation = 0.0941895 Body force = (-0.700574 , -7.41591 , -0) 
 At (1.425 , 0.575 , 0.05 )  Deviation = 0.0922254 Body force = (-0.671962 , -7.26542 , -0) 
 At (1.475 , 0.575 , 0.05 )  Deviation = 0.0904935 Body force = (-0.647097 , -7.13123 , -0) 
 At (1.525 , 0.575 , 0.05 )  Deviation = -0.127669 Body force = (0 , 0 , 0) 
 At (1.575 , 0.575 , 0.05 )  Deviation = 0 Body force = (0 , 0 , 0) 
 At (1.625 , 0.575 , 0.05 )  Deviation = 9.99324 Body force = (0 , 0 , 0) 
 At (1.675 , 0.575 , 0.05 )  Deviation = -0.18809 Body force = (0 , 0 , 0) 
 At (1.725 , 0.575 , 0.05 )  Deviation = 0 Body force = (0 , 0 , 0) 
 At (1.775 , 0.575 , 0.05 )  Deviation = 9.99451 Body force = (0 , 0 , 0) 
 At (1.825 , 0.575 , 0.05 )  Deviation = -0.246287 Body force = (0 , 0 , 0) 
 At (1.875 , 0.575 , 0.05 )  Deviation = 0 Body force = (0 , 0 , 0) 
 At (1.925 , 0.575 , 0.05 )  Deviation = 9.99444 Body force = (0 , 0 , 0) 
 At (1.975 , 0.575 , 0.05 )  Deviation = -0.302288 Body force = (0 , 0 , 0) 
 At (0.025 , 0.625 , 0.05 )  Deviation = 0 Body force = (0 , 0 , 0) 
 At (0.075 , 0.625 , 0.05 )  Deviation = 9.99349 Body force = (0 , 0 , 0) 
 At (0.125 , 0.625 , 0.05 )  Deviation = -0.356093 Body force = (0 , 0 , 0) 
 At (0.175 , 0.625 , 0.05 )  Deviation = 0 Body force = (0 , 0 , 0) 
 At (0.225 , 0.625 , 0.05 )  Deviation = 9.99233 Body force = (0 , 0 , 0) 
 At (0.275 , 0.625 , 0.05 )  Deviation = -0.407676 Body force = (0 , 0 , 0) 
 At (0.325 , 0.625 , 0.05 )  Deviation = 0 Body force = (0 , 0 , 0) 
 At (0.375 , 0.625 , 0.05 )  Deviation = 9.99142 Body force = (0 , 0 , 0) 
 At (0.425 , 0.625 , 0.05 )  Deviation = -0.456979 Body force = (0 , 0 , 0) 
 At (0.475 , 0.625 , 0.05 )  Deviation = 0 Body force = (0 , 0 , 0) 
 At (0.525 , 0.625 , 0.05 )  Deviation = 0.168031 Body force = (-2.20653 , -13.0079 , -0) 
 At (0.575 , 0.625 , 0.05 )  Deviation = 0.161763 Body force = (-2.04636 , -12.5398 , -0) 
 At (0.625 , 0.625 , 0.05 )  Deviation = 0.155723 Body force = (-1.89777 , -12.0881 , -0) 
 At (0.675 , 0.625 , 0.05 )  Deviation = 0.149906 Body force = (-1.75953 , -11.6495 , -0) 
 At (0.725 , 0.625 , 0.05 )  Deviation = 0.144307 Body force = (-1.63119 , -11.225 , -0) 
 At (0.775 , 0.625 , 0.05 )  Deviation = 0.138928 Body force = (-1.51241 , -10.8161 , -0) 
 At (0.825 , 0.625 , 0.05 )  Deviation = 0.133773 Body force = (-1.40287 , -10.4243 , -0) 
 At (0.875 , 0.625 , 0.05 )  Deviation = 0.128849 Body force = (-1.3022 , -10.0504 , -0) 
 At (0.925 , 0.625 , 0.05 )  Deviation = 0.124166 Body force = (-1.21002 , -9.69505 , -0) 
 At (0.975 , 0.625 , 0.05 )  Deviation = 0.119733 Body force = (-1.12597 , -9.35901 , -0) 
 At (1.025 , 0.625 , 0.05 )  Deviation = 0.115562 Body force = (-1.04968 , -9.04285 , -0) 
 At (1.075 , 0.625 , 0.05 )  Deviation = 0.111662 Body force = (-0.980805 , -8.74714 , -0) 
 At (1.125 , 0.625 , 0.05 )  Deviation = 0.108043 Body force = (-0.918955 , -8.47237 , -0) 
 At (1.175 , 0.625 , 0.05 )  Deviation = 0.104708 Body force = (-0.863738 , -8.21886 , -0) 
 At (1.225 , 0.625 , 0.05 )  Deviation = 0.10166 Body force = (-0.814735 , -7.98672 , -0) 
 At (1.275 , 0.625 , 0.05 )  Deviation = 0.0988952 Body force = (-0.77151 , -7.77584 , -0) 
 At (1.325 , 0.625 , 0.05 )  Deviation = 0.0964086 Body force = (-0.733611 , -7.58581 , -0) 
 At (1.375 , 0.625 , 0.05 )  Deviation = 0.0941896 Body force = (-0.700576 , -7.41592 , -0) 
 At (1.425 , 0.625 , 0.05 )  Deviation = 0.0922257 Body force = (-0.671966 , -7.26544 , -0) 
 At (1.475 , 0.625 , 0.05 )  Deviation = 0.0904938 Body force = (-0.647102 , -7.13126 , -0) 
 At (1.525 , 0.625 , 0.05 )  Deviation = 0 Body force = (0 , 0 , 0) 
 At (1.575 , 0.625 , 0.05 )  Deviation = 9.99646 Body force = (0 , 0 , 0) 
 At (1.625 , 0.625 , 0.05 )  Deviation = -0.757929 Body force = (0 , 0 , 0) 
 At (1.675 , 0.625 , 0.05 )  Deviation = 0 Body force = (0 , 0 , 0) 
 At (1.725 , 0.625 , 0.05 )  Deviation = 9.99725 Body force = (0 , 0 , 0) 
 At (1.775 , 0.625 , 0.05 )  Deviation = -0.782978 Body force = (0 , 0 , 0) 
 At (1.825 , 0.625 , 0.05 )  Deviation = 0 Body force = (0 , 0 , 0) 
 At (1.875 , 0.625 , 0.05 )  Deviation = 9.99789 Body force = (0 , 0 , 0) 
 At (1.925 , 0.625 , 0.05 )  Deviation = -0.805335 Body force = (0 , 0 , 0) 
 At (1.975 , 0.625 , 0.05 )  Deviation = 0 Body force = (0 , 0 , 0) 
 At (0.025 , 0.675 , 0.05 )  Deviation = 9.99843 Body force = (0 , 0 , 0) 
 At (0.075 , 0.675 , 0.05 )  Deviation = -0.825133 Body force = (0 , 0 , 0) 
 At (0.125 , 0.675 , 0.05 )  Deviation = 0 Body force = (0 , 0 , 0) 
 At (0.175 , 0.675 , 0.05 )  Deviation = 9.99854 Body force = (0 , 0 , 0) 
 At (0.225 , 0.675 , 0.05 )  Deviation = -0.842518 Body force = (0 , 0 , 0) 
 At (0.275 , 0.675 , 0.05 )  Deviation = 0 Body force = (0 , 0 , 0) 
 At (0.325 , 0.675 , 0.05 )  Deviation = 10.0006 Body force = (0 , 0 , 0) 
 At (0.375 , 0.675 , 0.05 )  Deviation = -0.819973 Body force = (0 , 0 , 0) 
 At (0.425 , 0.675 , 0.05 )  Deviation = 0 Body force = (0 , 0 , 0) 
 At (0.475 , 0.675 , 0.05 )  Deviation = 10.0005 Body force = (0 , 0 , 0) 
 At (0.525 , 0.675 , 0.05 )  Deviation = 0.168031 Body force = (-2.20654 , -13.0079 , -0) 
 At (0.575 , 0.675 , 0.05 )  Deviation = 0.161763 Body force = (-2.04636 , -12.5398 , -0) 
 At (0.625 , 0.675 , 0.05 )  Deviation = 0.155723 Body force = (-1.89777 , -12.0881 , -0) 
 At (0.675 , 0.675 , 0.05 )  Deviation = 0.149906 Body force = (-1.75953 , -11.6495 , -0) 
 At (0.725 , 0.675 , 0.05 )  Deviation = 0.144307 Body force = (-1.63118 , -11.225 , -0) 
 At (0.775 , 0.675 , 0.05 )  Deviation = 0.138928 Body force = (-1.51241 , -10.8161 , -0) 
 At (0.825 , 0.675 , 0.05 )  Deviation = 0.133773 Body force = (-1.40287 , -10.4243 , -0) 
 At (0.875 , 0.675 , 0.05 )  Deviation = 0.128849 Body force = (-1.3022 , -10.0504 , -0) 
 At (0.925 , 0.675 , 0.05 )  Deviation = 0.124166 Body force = (-1.21002 , -9.69506 , -0) 
 At (0.975 , 0.675 , 0.05 )  Deviation = 0.119733 Body force = (-1.12597 , -9.35902 , -0) 
 At (1.025 , 0.675 , 0.05 )  Deviation = 0.115562 Body force = (-1.04968 , -9.04286 , -0) 
 At (1.075 , 0.675 , 0.05 )  Deviation = 0.111662 Body force = (-0.980806 , -8.74715 , -0) 
 At (1.125 , 0.675 , 0.05 )  Deviation = 0.108043 Body force = (-0.918956 , -8.47237 , -0) 
 At (1.175 , 0.675 , 0.05 )  Deviation = 0.104708 Body force = (-0.863738 , -8.21886 , -0) 
 At (1.225 , 0.675 , 0.05 )  Deviation = 0.10166 Body force = (-0.814735 , -7.98673 , -0) 
 At (1.275 , 0.675 , 0.05 )  Deviation = 0.0988952 Body force = (-0.77151 , -7.77584 , -0) 
 At (1.325 , 0.675 , 0.05 )  Deviation = 0.0964087 Body force = (-0.733613 , -7.58581 , -0) 
 At (1.375 , 0.675 , 0.05 )  Deviation = 0.0941898 Body force = (-0.700579 , -7.41594 , -0) 
 At (1.425 , 0.675 , 0.05 )  Deviation = 0.092226 Body force = (-0.671971 , -7.26546 , -0) 
 At (1.475 , 0.675 , 0.05 )  Deviation = 0.0904942 Body force = (-0.647108 , -7.13129 , -0) 
 At (1.525 , 0.675 , 0.05 )  Deviation = 10.0064 Body force = (0 , 0 , 0) 
 At (1.575 , 0.675 , 0.05 )  Deviation = -0.557753 Body force = (0 , 0 , 0) 
 At (1.625 , 0.675 , 0.05 )  Deviation = 0 Body force = (0 , 0 , 0) 
 At (1.675 , 0.675 , 0.05 )  Deviation = 10.0067 Body force = (0 , 0 , 0) 
 At (1.725 , 0.675 , 0.05 )  Deviation = -0.519209 Body force = (0 , 0 , 0) 
 At (1.775 , 0.675 , 0.05 )  Deviation = 0 Body force = (0 , 0 , 0) 
 At (1.825 , 0.675 , 0.05 )  Deviation = 10 Body force = (0 , 0 , 0) 
 At (1.875 , 0.675 , 0.05 )  Deviation = 4.31157e-06 Body force = (0 , 0 , 0) 
 At (1.925 , 0.675 , 0.05 )  Deviation = 0 Body force = (0 , 0 , 0) 
 At (1.975 , 0.675 , 0.05 )  Deviation = 9.99998 Body force = (0 , 0 , 0) 
 At (0.025 , 0.725 , 0.05 )  Deviation = 1.84289e-05 Body force = (0 , 0 , 0) 
 At (0.075 , 0.725 , 0.05 )  Deviation = 0 Body force = (0 , 0 , 0) 
 At (0.125 , 0.725 , 0.05 )  Deviation = 9.99993 Body force = (0 , 0 , 0) 
 At (0.175 , 0.725 , 0.05 )  Deviation = 3.16571e-05 Body force = (0 , 0 , 0) 
 At (0.225 , 0.725 , 0.05 )  Deviation = 0 Body force = (0 , 0 , 0) 
 At (0.275 , 0.725 , 0.05 )  Deviation = 9.99985 Body force = (0 , 0 , 0) 
 At (0.325 , 0.725 , 0.05 )  Deviation = 4.35252e-05 Body force = (0 , 0 , 0) 
 At (0.375 , 0.725 , 0.05 )  Deviation = 0 Body force = (0 , 0 , 0) 
 At (0.425 , 0.725 , 0.05 )  Deviation = 9.99975 Body force = (0 , 0 , 0) 
 At (0.475 , 0.725 , 0.05 )  Deviation = 5.28097e-05 Body force = (0 , 0 , 0) 
 At (0.525 , 0.725 , 0.05 )  Deviation = 0.168031 Body force = (-2.20655 , -13.0079 , -0) 
 At (0.575 , 0.725 , 0.05 )  Deviation = 0.161763 Body force = (-2.04636 , -12.5399 , -0) 
 At (0.625 , 0.725 , 0.05 )  Deviation = 0.155724 Body force = (-1.89777 , -12.0881 , -0) 
 At (0.675 , 0.725 , 0.05 )  Deviation = 0.149906 Body force = (-1.75953 , -11.6495 , -0) 
 At (0.725 , 0.725 , 0.05 )  Deviation = 0.144307 Body force = (-1.63118 , -11.225 , -0) 
 At (0.775 , 0.725 , 0.05 )  Deviation = 0.138928 Body force = (-1.5124 , -10.8161 , -0) 
 At (0.825 , 0.725 , 0.05 )  Deviation = 0.133773 Body force = (-1.40286 , -10.4243 , -0) 
 At (0.875 , 0.725 , 0.05 )  Deviation = 0.128849 Body force = (-1.30219 , -10.0503 , -0) 
 At (0.925 , 0.725 , 0.05 )  Deviation = 0.124166 Body force = (-1.21002 , -9.69504 , -0) 
 At (0.975 , 0.725 , 0.05 )  Deviation = 0.119733 Body force = (-1.12597 , -9.35901 , -0) 
 At (1.025 , 0.725 , 0.05 )  Deviation = 0.115562 Body force = (-1.04968 , -9.04285 , -0) 
 At (1.075 , 0.725 , 0.05 )  Deviation = 0.111662 Body force = (-0.980806 , -8.74714 , -0) 
 At (1.125 , 0.725 , 0.05 )  Deviation = 0.108043 Body force = (-0.918956 , -8.47237 , -0) 
 At (1.175 , 0.725 , 0.05 )  Deviation = 0.104708 Body force = (-0.863738 , -8.21886 , -0) 
 At (1.225 , 0.725 , 0.05 )  Deviation = 0.10166 Body force = (-0.814736 , -7.98673 , -0) 
 At (1.275 , 0.725 , 0.05 )  Deviation = 0.0988953 Body force = (-0.771512 , -7.77585 , -0) 
 At (1.325 , 0.725 , 0.05 )  Deviation = 0.0964089 Body force = (-0.733616 , -7.58583 , -0) 
 At (1.375 , 0.725 , 0.05 )  Deviation = 0.0941901 Body force = (-0.700584 , -7.41597 , -0) 
 At (1.425 , 0.725 , 0.05 )  Deviation = 0.0922263 Body force = (-0.671976 , -7.26549 , -0) 
 At (1.475 , 0.725 , 0.05 )  Deviation = 0.0904946 Body force = (-0.647114 , -7.13133 , -0) 
 At (1.525 , 0.725 , 0.05 )  Deviation = -0.127687 Body force = (0 , 0 , 0) 
 At (1.575 , 0.725 , 0.05 )  Deviation = 0 Body force = (0 , 0 , 0) 
 At (1.625 , 0.725 , 0.05 )  Deviation = 9.99325 Body force = (0 , 0 , 0) 
 At (1.675 , 0.725 , 0.05 )  Deviation = -0.188112 Body force = (0 , 0 , 0) 
 At (1.725 , 0.725 , 0.05 )  Deviation = 0 Body force = (0 , 0 , 0) 
 At (1.775 , 0.725 , 0.05 )  Deviation = 9.99452 Body force = (0 , 0 , 0) 
 At (1.825 , 0.725 , 0.05 )  Deviation = -0.246312 Body force = (0 , 0 , 0) 
 At (1.875 , 0.725 , 0.05 )  Deviation = 0 Body force = (0 , 0 , 0) 
 At (1.925 , 0.725 , 0.05 )  Deviation = 9.99445 Body force = (0 , 0 , 0) 
 At (1.975 , 0.725 , 0.05 )  Deviation = -0.302308 Body force = (0 , 0 , 0) 
 At (0.025 , 0.775 , 0.05 )  Deviation = 0 Body force = (0 , 0 , 0) 
 At (0.075 , 0.775 , 0.05 )  Deviation = 9.99349 Body force = (0 , 0 , 0) 
 At (0.125 , 0.775 , 0.05 )  Deviation = -0.356102 Body force = (0 , 0 , 0) 
 At (0.175 , 0.775 , 0.05 )  Deviation = 0 Body force = (0 , 0 , 0) 
 At (0.225 , 0.775 , 0.05 )  Deviation = 9.99232 Body force = (0 , 0 , 0) 
 At (0.275 , 0.775 , 0.05 )  Deviation = -0.407672 Body force = (0 , 0 , 0) 
 At (0.325 , 0.775 , 0.05 )  Deviation = 0 Body force = (0 , 0 , 0) 
 At (0.375 , 0.775 , 0.05 )  Deviation = 9.99142 Body force = (0 , 0 , 0) 
 At (0.425 , 0.775 , 0.05 )  Deviation = -0.456961 Body force = (0 , 0 , 0) 
 At (0.475 , 0.775 , 0.05 )  Deviation = 0 Body force = (0 , 0 , 0) 
 At (0.525 , 0.775 , 0.05 )  Deviation = 0.168032 Body force = (-2.20656 , -13.008 , -0) 
 At (0.575 , 0.775 , 0.05 )  Deviation = 0.161763 Body force = (-2.04637 , -12.5399 , -0) 
 At (0.625 , 0.775 , 0.05 )  Deviation = 0.155724 Body force = (-1.89778 , -12.0882 , -0) 
 At (0.675 , 0.775 , 0.05 )  Deviation = 0.149906 Body force = (-1.75954 , -11.6495 , -0) 
 At (0.725 , 0.775 , 0.05 )  Deviation = 0.144307 Body force = (-1.63118 , -11.225 , -0) 
 At (0.775 , 0.775 , 0.05 )  Deviation = 0.138928 Body force = (-1.5124 , -10.8161 , -0) 
 At (0.825 , 0.775 , 0.05 )  Deviation = 0.133773 Body force = (-1.40286 , -10.4242 , -0) 
 At (0.875 , 0.775 , 0.05 )  Deviation = 0.128849 Body force = (-1.30219 , -10.0503 , -0) 
 At (0.925 , 0.775 , 0.05 )  Deviation = 0.124165 Body force = (-1.21001 , -9.69501 , -0) 
 At (0.975 , 0.775 , 0.05 )  Deviation = 0.119732 Body force = (-1.12596 , -9.35898 , -0) 
 At (1.025 , 0.775 , 0.05 )  Deviation = 0.115561 Body force = (-1.04968 , -9.04283 , -0) 
 At (1.075 , 0.775 , 0.05 )  Deviation = 0.111662 Body force = (-0.980801 , -8.74712 , -0) 
 At (1.125 , 0.775 , 0.05 )  Deviation = 0.108042 Body force = (-0.918952 , -8.47235 , -0) 
 At (1.175 , 0.775 , 0.05 )  Deviation = 0.104708 Body force = (-0.863736 , -8.21885 , -0) 
 At (1.225 , 0.775 , 0.05 )  Deviation = 0.101659 Body force = (-0.814735 , -7.98673 , -0) 
 At (1.275 , 0.775 , 0.05 )  Deviation = 0.0988954 Body force = (-0.771513 , -7.77586 , -0) 
 At (1.325 , 0.775 , 0.05 )  Deviation = 0.0964091 Body force = (-0.733619 , -7.58585 , -0) 
 At (1.375 , 0.775 , 0.05 )  Deviation = 0.0941904 Body force = (-0.700589 , -7.41599 , -0) 
 At (1.425 , 0.775 , 0.05 )  Deviation = 0.0922266 Body force = (-0.671981 , -7.26552 , -0) 
 At (1.475 , 0.775 , 0.05 )  Deviation = 0.0904949 Body force = (-0.647119 , -7.13135 , -0) 
 At (1.525 , 0.775 , 0.05 )  Deviation = 0 Body force = (0 , 0 , 0) 
 At (1.575 , 0.775 , 0.05 )  Deviation = 9.99646 Body force = (0 , 0 , 0) 
 At (1.625 , 0.775 , 0.05 )  Deviation = -0.757923 Body force = (0 , 0 , 0) 
 At (1.675 , 0.775 , 0.05 )  Deviation = 0 Body force = (0 , 0 , 0) 
 At (1.725 , 0.775 , 0.05 )  Deviation = 9.99725 Body force = (0 , 0 , 0) 
 At (1.775 , 0.775 , 0.05 )  Deviation = -0.782975 Body force = (0 , 0 , 0) 
 At (1.825 , 0.775 , 0.05 )  Deviation = 0 Body force = (0 , 0 , 0) 
 At (1.875 , 0.775 , 0.05 )  Deviation = 9.9979 Body force = (0 , 0 , 0) 
 At (1.925 , 0.775 , 0.05 )  Deviation = -0.805334 Body force = (0 , 0 , 0) 
 At (1.975 , 0.775 , 0.05 )  Deviation = 0 Body force = (0 , 0 , 0) 
 At (0.025 , 0.825 , 0.05 )  Deviation = 9.99844 Body force = (0 , 0 , 0) 
 At (0.075 , 0.825 , 0.05 )  Deviation = -0.825133 Body force = (0 , 0 , 0) 
 At (0.125 , 0.825 , 0.05 )  Deviation = 0 Body force = (0 , 0 , 0) 
 At (0.175 , 0.825 , 0.05 )  Deviation = 9.99854 Body force = (0 , 0 , 0) 
 At (0.225 , 0.825 , 0.05 )  Deviation = -0.842519 Body force = (0 , 0 , 0) 
 At (0.275 , 0.825 , 0.05 )  Deviation = 0 Body force = (0 , 0 , 0) 
 At (0.325 , 0.825 , 0.05 )  Deviation = 10.0006 Body force = (0 , 0 , 0) 
 At (0.375 , 0.825 , 0.05 )  Deviation = -0.819971 Body force = (0 , 0 , 0) 
 At (0.425 , 0.825 , 0.05 )  Deviation = 0 Body force = (0 , 0 , 0) 
 At (0.475 , 0.825 , 0.05 )  Deviation = 10.0005 Body force = (0 , 0 , 0) 
 At (0.525 , 0.825 , 0.05 )  Deviation = 0.168033 Body force = (-2.20658 , -13.008 , -0) 
 At (0.575 , 0.825 , 0.05 )  Deviation = 0.161764 Body force = (-2.0464 , -12.5399 , -0) 
 At (0.625 , 0.825 , 0.05 )  Deviation = 0.155725 Body force = (-1.89781 , -12.0882 , -0) 
 At (0.675 , 0.825 , 0.05 )  Deviation = 0.149907 Body force = (-1.75956 , -11.6496 , -0) 
 At (0.725 , 0.825 , 0.05 )  Deviation = 0.144308 Body force = (-1.6312 , -11.225 , -0) 
 At (0.775 , 0.825 , 0.05 )  Deviation = 0.138929 Body force = (-1.51241 , -10.8161 , -0) 
 At (0.825 , 0.825 , 0.05 )  Deviation = 0.133773 Body force = (-1.40286 , -10.4242 , -0) 
 At (0.875 , 0.825 , 0.05 )  Deviation = 0.128849 Body force = (-1.30218 , -10.0503 , -0) 
 At (0.925 , 0.825 , 0.05 )  Deviation = 0.124165 Body force = (-1.21 , -9.69499 , -0) 
 At (0.975 , 0.825 , 0.05 )  Deviation = 0.119732 Body force = (-1.12595 , -9.35894 , -0) 
 At (1.025 , 0.825 , 0.05 )  Deviation = 0.115561 Body force = (-1.04967 , -9.04278 , -0) 
 At (1.075 , 0.825 , 0.05 )  Deviation = 0.111661 Body force = (-0.980791 , -8.74708 , -0) 
 At (1.125 , 0.825 , 0.05 )  Deviation = 0.108042 Body force = (-0.918944 , -8.47232 , -0) 
 At (1.175 , 0.825 , 0.05 )  Deviation = 0.104707 Body force = (-0.86373 , -8.21882 , -0) 
 At (1.225 , 0.825 , 0.05 )  Deviation = 0.101659 Body force = (-0.814732 , -7.98671 , -0) 
 At (1.275 , 0.825 , 0.05 )  Deviation = 0.0988954 Body force = (-0.771514 , -7.77586 , -0) 
 At (1.325 , 0.825 , 0.05 )  Deviation = 0.0964092 Body force = (-0.733622 , -7.58587 , -0) 
 At (1.375 , 0.825 , 0.05 )  Deviation = 0.0941907 Body force = (-0.700593 , -7.41602 , -0) 
 At (1.425 , 0.825 , 0.05 )  Deviation = 0.0922269 Body force = (-0.671985 , -7.26555 , -0) 
 At (1.475 , 0.825 , 0.05 )  Deviation = 0.090495 Body force = (-0.647121 , -7.13137 , -0) 
 At (1.525 , 0.825 , 0.05 )  Deviation = 10.0064 Body force = (0 , 0 , 0) 
 At (1.575 , 0.825 , 0.05 )  Deviation = -0.557788 Body force = (0 , 0 , 0) 
 At (1.625 , 0.825 , 0.05 )  Deviation = 0 Body force = (0 , 0 , 0) 
 At (1.675 , 0.825 , 0.05 )  Deviation = 10.0067 Body force = (0 , 0 , 0) 
 At (1.725 , 0.825 , 0.05 )  Deviation = -0.519245 Body force = (0 , 0 , 0) 
 At (1.775 , 0.825 , 0.05 )  Deviation = 0 Body force = (0 , 0 , 0) 
 At (1.825 , 0.825 , 0.05 )  Deviation = 10 Body force = (0 , 0 , 0) 
 At (1.875 , 0.825 , 0.05 )  Deviation = 2.918e-06 Body force = (0 , 0 , 0) 
 At (1.925 , 0.825 , 0.05 )  Deviation = 0 Body force = (0 , 0 , 0) 
 At (1.975 , 0.825 , 0.05 )  Deviation = 9.99998 Body force = (0 , 0 , 0) 
 At (0.025 , 0.875 , 0.05 )  Deviation = 1.28631e-05 Body force = (0 , 0 , 0) 
 At (0.075 , 0.875 , 0.05 )  Deviation = 0 Body force = (0 , 0 , 0) 
 At (0.125 , 0.875 , 0.05 )  Deviation = 9.99994 Body force = (0 , 0 , 0) 
 At (0.175 , 0.875 , 0.05 )  Deviation = 2.34031e-05 Body force = (0 , 0 , 0) 
 At (0.225 , 0.875 , 0.05 )  Deviation = 0 Body force = (0 , 0 , 0) 
 At (0.275 , 0.875 , 0.05 )  Deviation = 9.99986 Body force = (0 , 0 , 0) 
 At (0.325 , 0.875 , 0.05 )  Deviation = 3.35636e-05 Body force = (0 , 0 , 0) 
 At (0.375 , 0.875 , 0.05 )  Deviation = 0 Body force = (0 , 0 , 0) 
 At (0.425 , 0.875 , 0.05 )  Deviation = 9.99976 Body force = (0 , 0 , 0) 
 At (0.475 , 0.875 , 0.05 )  Deviation = 4.10826e-05 Body force = (0 , 0 , 0) 
 At (0.525 , 0.875 , 0.05 )  Deviation = 0.168033 Body force = (-2.20658 , -13.008 , -0) 
 At (0.575 , 0.875 , 0.05 )  Deviation = 0.161765 Body force = (-2.04641 , -12.54 , -0) 
 At (0.625 , 0.875 , 0.05 )  Deviation = 0.155726 Body force = (-1.89782 , -12.0883 , -0) 
 At (0.675 , 0.875 , 0.05 )  Deviation = 0.149908 Body force = (-1.75958 , -11.6497 , -0) 
 At (0.725 , 0.875 , 0.05 )  Deviation = 0.14431 Body force = (-1.63123 , -11.2251 , -0) 
 At (0.775 , 0.875 , 0.05 )  Deviation = 0.13893 Body force = (-1.51244 , -10.8162 , -0) 
 At (0.825 , 0.875 , 0.05 )  Deviation = 0.133775 Body force = (-1.40289 , -10.4243 , -0) 
 At (0.875 , 0.875 , 0.05 )  Deviation = 0.12885 Body force = (-1.30221 , -10.0504 , -0) 
 At (0.925 , 0.875 , 0.05 )  Deviation = 0.124166 Body force = (-1.21002 , -9.69505 , -0) 
 At (0.975 , 0.875 , 0.05 )  Deviation = 0.119733 Body force = (-1.12596 , -9.35899 , -0) 
 At (1.025 , 0.875 , 0.05 )  Deviation = 0.115561 Body force = (-1.04967 , -9.04281 , -0) 
 At (1.075 , 0.875 , 0.05 )  Deviation = 0.111662 Body force = (-0.980794 , -8.74709 , -0) 
 At (1.125 , 0.875 , 0.05 )  Deviation = 0.108042 Body force = (-0.918945 , -8.47232 , -0) 
 At (1.175 , 0.875 , 0.05 )  Deviation = 0.104707 Body force = (-0.863731 , -8.21883 , -0) 
 At (1.225 , 0.875 , 0.05 )  Deviation = 0.101659 Body force = (-0.814734 , -7.98673 , -0) 
 At (1.275 , 0.875 , 0.05 )  Deviation = 0.0988955 Body force = (-0.771517 , -7.77588 , -0) 
 At (1.325 , 0.875 , 0.05 )  Deviation = 0.0964095 Body force = (-0.733627 , -7.5859 , -0) 
 At (1.375 , 0.875 , 0.05 )  Deviation = 0.094191 Body force = (-0.700598 , -7.41605 , -0) 
 At (1.425 , 0.875 , 0.05 )  Deviation = 0.0922272 Body force = (-0.671989 , -7.26557 , -0) 
 At (1.475 , 0.875 , 0.05 )  Deviation = 0.0904952 Body force = (-0.647123 , -7.13138 , -0) 
 At (1.525 , 0.875 , 0.05 )  Deviation = -0.127713 Body force = (0 , 0 , 0) 
 At (1.575 , 0.875 , 0.05 )  Deviation = 0 Body force = (0 , 0 , 0) 
 At (1.625 , 0.875 , 0.05 )  Deviation = 9.99324 Body force = (0 , 0 , 0) 
 At (1.675 , 0.875 , 0.05 )  Deviation = -0.188151 Body force = (0 , 0 , 0) 
 At (1.725 , 0.875 , 0.05 )  Deviation = 0 Body force = (0 , 0 , 0) 
 At (1.775 , 0.875 , 0.05 )  Deviation = 9.99452 Body force = (0 , 0 , 0) 
 At (1.825 , 0.875 , 0.05 )  Deviation = -0.246359 Body force = (0 , 0 , 0) 
 At (1.875 , 0.875 , 0.05 )  Deviation = 0 Body force = (0 , 0 , 0) 
 At (1.925 , 0.875 , 0.05 )  Deviation = 9.99445 Body force = (0 , 0 , 0) 
 At (1.975 , 0.875 , 0.05 )  Deviation = -0.302354 Body force = (0 , 0 , 0) 
 At (0.025 , 0.925 , 0.05 )  Deviation = 0 Body force = (0 , 0 , 0) 
 At (0.075 , 0.925 , 0.05 )  Deviation = 9.99351 Body force = (0 , 0 , 0) 
 At (0.125 , 0.925 , 0.05 )  Deviation = -0.356138 Body force = (0 , 0 , 0) 
 At (0.175 , 0.925 , 0.05 )  Deviation = 0 Body force = (0 , 0 , 0) 
 At (0.225 , 0.925 , 0.05 )  Deviation = 9.99234 Body force = (0 , 0 , 0) 
 At (0.275 , 0.925 , 0.05 )  Deviation = -0.407692 Body force = (0 , 0 , 0) 
 At (0.325 , 0.925 , 0.05 )  Deviation = 0 Body force = (0 , 0 , 0) 
 At (0.375 , 0.925 , 0.05 )  Deviation = 9.99143 Body force = (0 , 0 , 0) 
 At (0.425 , 0.925 , 0.05 )  Deviation = -0.456964 Body force = (0 , 0 , 0) 
 At (0.475 , 0.925 , 0.05 )  Deviation = 0 Body force = (0 , 0 , 0) 
 At (0.525 , 0.925 , 0.05 )  Deviation = 0.168031 Body force = (-2.20655 , -13.0079 , -0) 
 At (0.575 , 0.925 , 0.05 )  Deviation = 0.161763 Body force = (-2.04637 , -12.5399 , -0) 
 At (0.625 , 0.925 , 0.05 )  Deviation = 0.155724 Body force = (-1.89778 , -12.0882 , -0) 
 At (0.675 , 0.925 , 0.05 )  Deviation = 0.149907 Body force = (-1.75955 , -11.6496 , -0) 
 At (0.725 , 0.925 , 0.05 )  Deviation = 0.144309 Body force = (-1.63122 , -11.2251 , -0) 
 At (0.775 , 0.925 , 0.05 )  Deviation = 0.138931 Body force = (-1.51246 , -10.8163 , -0) 
 At (0.825 , 0.925 , 0.05 )  Deviation = 0.133776 Body force = (-1.40293 , -10.4245 , -0) 
 At (0.875 , 0.925 , 0.05 )  Deviation = 0.128853 Body force = (-1.30225 , -10.0506 , -0) 
 At (0.925 , 0.925 , 0.05 )  Deviation = 0.124169 Body force = (-1.21007 , -9.69525 , -0) 
 At (0.975 , 0.925 , 0.05 )  Deviation = 0.119735 Body force = (-1.12601 , -9.35918 , -0) 
 At (1.025 , 0.925 , 0.05 )  Deviation = 0.115563 Body force = (-1.04971 , -9.04298 , -0) 
 At (1.075 , 0.925 , 0.05 )  Deviation = 0.111663 Body force = (-0.980825 , -8.74723 , -0) 
 At (1.125 , 0.925 , 0.05 )  Deviation = 0.108043 Body force = (-0.918967 , -8.47242 , -0) 
 At (1.175 , 0.925 , 0.05 )  Deviation = 0.104708 Body force = (-0.863746 , -8.2189 , -0) 
 At (1.225 , 0.925 , 0.05 )  Deviation = 0.10166 Body force = (-0.814745 , -7.98678 , -0) 
 At (1.275 , 0.925 , 0.05 )  Deviation = 0.098896 Body force = (-0.771526 , -7.77593 , -0) 
 At (1.325 , 0.925 , 0.05 )  Deviation = 0.0964098 Body force = (-0.733633 , -7.58593 , -0) 
 At (1.375 , 0.925 , 0.05 )  Deviation = 0.0941912 Body force = (-0.700602 , -7.41607 , -0) 
 At (1.425 , 0.925 , 0.05 )  Deviation = 0.0922273 Body force = (-0.671991 , -7.26558 , -0) 
 At (1.475 , 0.925 , 0.05 )  Deviation = 0.0904955 Body force = (-0.647127 , -7.1314 , -0) 
 At (1.525 , 0.925 , 0.05 )  Deviation = 0 Body force = (0 , 0 , 0) 
 At (1.575 , 0.925 , 0.05 )  Deviation = 9.99646 Body force = (0 , 0 , 0) 
 At (1.625 , 0.925 , 0.05 )  Deviation = -0.757923 Body force = (0 , 0 , 0) 
 At (1.675 , 0.925 , 0.05 )  Deviation = 0 Body force = (0 , 0 , 0) 
 At (1.725 , 0.925 , 0.05 )  Deviation = 9.99726 Body force = (0 , 0 , 0) 
 At (1.775 , 0.925 , 0.05 )  Deviation = -0.78298 Body force = (0 , 0 , 0) 
 At (1.825 , 0.925 , 0.05 )  Deviation = 0 Body force = (0 , 0 , 0) 
 At (1.875 , 0.925 , 0.05 )  Deviation = 9.9979 Body force = (0 , 0 , 0) 
 At (1.925 , 0.925 , 0.05 )  Deviation = -0.805345 Body force = (0 , 0 , 0) 
 At (1.975 , 0.925 , 0.05 )  Deviation = 0 Body force = (0 , 0 , 0) 
 At (0.025 , 0.975 , 0.05 )  Deviation = 9.99844 Body force = (0 , 0 , 0) 
 At (0.075 , 0.975 , 0.05 )  Deviation = -0.825149 Body force = (0 , 0 , 0) 
 At (0.125 , 0.975 , 0.05 )  Deviation = 0 Body force = (0 , 0 , 0) 
 At (0.175 , 0.975 , 0.05 )  Deviation = 9.99855 Body force = (0 , 0 , 0) 
 At (0.225 , 0.975 , 0.05 )  Deviation = -0.842536 Body force = (0 , 0 , 0) 
 At (0.275 , 0.975 , 0.05 )  Deviation = 0 Body force = (0 , 0 , 0) 
 At (0.325 , 0.975 , 0.05 )  Deviation = 10.0006 Body force = (0 , 0 , 0) 
 At (0.375 , 0.975 , 0.05 )  Deviation = -0.819985 Body force = (0 , 0 , 0) 
 At (0.425 , 0.975 , 0.05 )  Deviation = 0 Body force = (0 , 0 , 0) 
 At (0.475 , 0.975 , 0.05 )  Deviation = 10.0005 Body force = (0 , 0 , 0) 
 At (0.525 , 0.975 , 0.05 )  Deviation = 0.168029 Body force = (-2.2065 , -13.0078 , -0) 
 At (0.575 , 0.975 , 0.05 )  Deviation = 0.16176 Body force = (-2.04629 , -12.5396 , -0) 
 At (0.625 , 0.975 , 0.05 )  Deviation = 0.15572 Body force = (-1.89769 , -12.0879 , -0) 
 At (0.675 , 0.975 , 0.05 )  Deviation = 0.149903 Body force = (-1.75947 , -11.6493 , -0) 
 At (0.725 , 0.975 , 0.05 )  Deviation = 0.144306 Body force = (-1.63116 , -11.2249 , -0) 
 At (0.775 , 0.975 , 0.05 )  Deviation = 0.13893 Body force = (-1.51244 , -10.8162 , -0) 
 At (0.825 , 0.975 , 0.05 )  Deviation = 0.133777 Body force = (-1.40294 , -10.4245 , -0) 
 At (0.875 , 0.975 , 0.05 )  Deviation = 0.128854 Body force = (-1.30229 , -10.0507 , -0) 
 At (0.925 , 0.975 , 0.05 )  Deviation = 0.124171 Body force = (-1.21011 , -9.69542 , -0) 
 At (0.975 , 0.975 , 0.05 )  Deviation = 0.119738 Body force = (-1.12605 , -9.35936 , -0) 
 At (1.025 , 0.975 , 0.05 )  Deviation = 0.115566 Body force = (-1.04975 , -9.04313 , -0) 
 At (1.075 , 0.975 , 0.05 )  Deviation = 0.111665 Body force = (-0.980853 , -8.74734 , -0) 
 At (1.125 , 0.975 , 0.05 )  Deviation = 0.108044 Body force = (-0.918985 , -8.4725 , -0) 
 At (1.175 , 0.975 , 0.05 )  Deviation = 0.104709 Body force = (-0.863755 , -8.21894 , -0) 
 At (1.225 , 0.975 , 0.05 )  Deviation = 0.10166 Body force = (-0.814747 , -7.98679 , -0) 
 At (1.275 , 0.975 , 0.05 )  Deviation = 0.0988957 Body force = (-0.771521 , -7.77591 , -0) 
 At (1.325 , 0.975 , 0.05 )  Deviation = 0.096409 Body force = (-0.733622 , -7.58588 , -0) 
 At (1.375 , 0.975 , 0.05 )  Deviation = 0.09419 Body force = (-0.700585 , -7.41599 , -0) 
 At (1.425 , 0.975 , 0.05 )  Deviation = 0.092226 Body force = (-0.671974 , -7.2655 , -0) 
 At (1.475 , 0.975 , 0.05 )  Deviation = 0.0904946 Body force = (-0.647116 , -7.13134 , -0) 
 At (1.525 , 0.975 , 0.05 )  Deviation = 10.0064 Body force = (0 , 0 , 0) 
 At (1.575 , 0.975 , 0.05 )  Deviation = -0.557841 Body force = (0 , 0 , 0) 
 At (1.625 , 0.975 , 0.05 )  Deviation = 0 Body force = (0 , 0 , 0) 
 At (1.675 , 0.975 , 0.05 )  Deviation = 10.0067 Body force = (0 , 0 , 0) 
 At (1.725 , 0.975 , 0.05 )  Deviation = -0.519298 Body force = (0 , 0 , 0) 
 At (1.775 , 0.975 , 0.05 )  Deviation = 0 Body force = (0 , 0 , 0) 
 At (1.825 , 0.975 , 0.05 )  Deviation = 9.49397e-320 Body force = (0 , 0 , 0) 
 At (1.875 , 0.975 , 0.05 )  Deviation = 4.18024e-319 Body force = (0 , 0 , 0) 
 At (1.925 , 0.975 , 0.05 )  Deviation = 1.00467e-316 Body force = (0 , 0 , 0) 
 At (1.975 , 0.975 , 0.05 )  Deviation = 9.85666e-317 Body force = (0 , 0 , 0) 
**codeSetValue**
smoothSolver:  Solving for Ux, Initial residual = 0.427163, Final residual = 0.00682205, No Iterations 2
smoothSolver:  Solving for Uy, Initial residual = 0.0392338, Final residual = 0.000467694, No Iterations 2
**codeCorrect**
GAMG:  Solving for p, Initial residual = 0.0699618, Final residual = 0.0062737, No Iterations 2
time step continuity errors : sum local = 0.000957825, global = 1.04871e-05, cumulative = 2.10866e-05
**codeCorrect**
ExecutionTime = 2.87 s  ClockTime = 27 s

Time = 11

**codeSetValue**
smoothSolver:  Solving for Ux, Initial residual = 0.286797, Final residual = 0.0271645, No Iterations 1
smoothSolver:  Solving for Uy, Initial residual = 0.0298457, Final residual = 0.000380289, No Iterations 2
**codeCorrect**
GAMG:  Solving for p, Initial residual = 0.120187, Final residual = 0.0108603, No Iterations 2
time step continuity errors : sum local = 0.000873173, global = -5.43461e-05, cumulative = -3.32595e-05
**codeCorrect**
ExecutionTime = 2.89 s  ClockTime = 27 s

Time = 12

**codeSetValue**
smoothSolver:  Solving for Ux, Initial residual = 0.468557, Final residual = 0.00725671, No Iterations 2
smoothSolver:  Solving for Uy, Initial residual = 0.0225162, Final residual = 0.000300728, No Iterations 2
**codeCorrect**
GAMG:  Solving for p, Initial residual = 0.23387, Final residual = 0.0116842, No Iterations 2
time step continuity errors : sum local = 0.000452709, global = -0.000157495, cumulative = -0.000190754
**codeCorrect**
ExecutionTime = 2.89 s  ClockTime = 27 s

Time = 13

**codeSetValue**
smoothSolver:  Solving for Ux, Initial residual = 0.386635, Final residual = 0.00730742, No Iterations 2
smoothSolver:  Solving for Uy, Initial residual = 0.0168016, Final residual = 0.000231121, No Iterations 2
**codeCorrect**
GAMG:  Solving for p, Initial residual = 0.147186, Final residual = 0.0136707, No Iterations 2
time step continuity errors : sum local = 0.000651494, global = -0.000148802, cumulative = -0.000339556
**codeCorrect**
ExecutionTime = 2.89 s  ClockTime = 27 s

Time = 14

**codeSetValue**
smoothSolver:  Solving for Ux, Initial residual = 0.266758, Final residual = 0.00325788, No Iterations 2
smoothSolver:  Solving for Uy, Initial residual = 0.0123633, Final residual = 0.000172559, No Iterations 2
**codeCorrect**
GAMG:  Solving for p, Initial residual = 0.0705775, Final residual = 0.00612175, No Iterations 2
time step continuity errors : sum local = 0.000531569, global = -4.07726e-05, cumulative = -0.000380329
**codeCorrect**
ExecutionTime = 2.9 s  ClockTime = 27 s

Time = 15

**codeSetValue**
smoothSolver:  Solving for Ux, Initial residual = 0.421612, Final residual = 0.00681845, No Iterations 2
smoothSolver:  Solving for Uy, Initial residual = 0.00897273, Final residual = 0.000125701, No Iterations 2
**codeCorrect**
GAMG:  Solving for p, Initial residual = 0.0527109, Final residual = 0.00250441, No Iterations 2
time step continuity errors : sum local = 0.000288396, global = -6.65011e-07, cumulative = -0.000380994
**codeCorrect**
ExecutionTime = 2.9 s  ClockTime = 27 s

Time = 16

**codeSetValue**
smoothSolver:  Solving for Ux, Initial residual = 0.362346, Final residual = 0.00721757, No Iterations 2
smoothSolver:  Solving for Uy, Initial residual = 0.00642163, Final residual = 8.95642e-05, No Iterations 2
**codeCorrect**
GAMG:  Solving for p, Initial residual = 0.0464334, Final residual = 0.00399832, No Iterations 2
time step continuity errors : sum local = 0.000450868, global = 9.11267e-05, cumulative = -0.000289867
**codeCorrect**
ExecutionTime = 2.9 s  ClockTime = 27 s

Time = 17

**codeSetValue**
smoothSolver:  Solving for Ux, Initial residual = 0.25491, Final residual = 0.0036888, No Iterations 2
smoothSolver:  Solving for Uy, Initial residual = 0.0045299, Final residual = 6.24437e-05, No Iterations 2
**codeCorrect**
GAMG:  Solving for p, Initial residual = 0.0495107, Final residual = 0.00449142, No Iterations 2
time step continuity errors : sum local = 0.000413223, global = 4.80789e-05, cumulative = -0.000241788
**codeCorrect**
ExecutionTime = 2.92 s  ClockTime = 27 s

Time = 18

**codeSetValue**
smoothSolver:  Solving for Ux, Initial residual = 0.331967, Final residual = 0.00512249, No Iterations 2
smoothSolver:  Solving for Uy, Initial residual = 0.00313811, Final residual = 4.25531e-05, No Iterations 2
**codeCorrect**
GAMG:  Solving for p, Initial residual = 0.0595276, Final residual = 0.0029636, No Iterations 2
time step continuity errors : sum local = 0.000214213, global = 4.99192e-05, cumulative = -0.000191869
**codeCorrect**
ExecutionTime = 2.92 s  ClockTime = 27 s

Time = 19

**codeSetValue**
smoothSolver:  Solving for Ux, Initial residual = 0.30382, Final residual = 0.00630089, No Iterations 2
smoothSolver:  Solving for Uy, Initial residual = 0.00213049, Final residual = 2.82729e-05, No Iterations 2
**codeCorrect**
GAMG:  Solving for p, Initial residual = 0.0551609, Final residual = 0.00423149, No Iterations 2
time step continuity errors : sum local = 0.000287926, global = -3.2603e-05, cumulative = -0.000224472
**codeCorrect**
ExecutionTime = 2.92 s  ClockTime = 27 s

Time = 20

 At (0.025 , 0.025 , 0.05 )  Deviation = 6.91316e-310 Body force = (0 , 0 , 0) 
 At (0.075 , 0.025 , 0.05 )  Deviation = 6.91316e-310 Body force = (0 , 0 , 0) 
 At (0.125 , 0.025 , 0.05 )  Deviation = 1.00607e-316 Body force = (0 , 0 , 0) 
 At (0.175 , 0.025 , 0.05 )  Deviation = 1.00607e-316 Body force = (0 , 0 , 0) 
 At (0.225 , 0.025 , 0.05 )  Deviation = -0.000198588 Body force = (0 , 0 , 0) 
 At (0.275 , 0.025 , 0.05 )  Deviation = -0.000189249 Body force = (0 , 0 , 0) 
 At (0.325 , 0.025 , 0.05 )  Deviation = -0.000180666 Body force = (0 , 0 , 0) 
 At (0.375 , 0.025 , 0.05 )  Deviation = -0.000166043 Body force = (0 , 0 , 0) 
 At (0.425 , 0.025 , 0.05 )  Deviation = -0.000154444 Body force = (0 , 0 , 0) 
 At (0.475 , 0.025 , 0.05 )  Deviation = -0.0001524 Body force = (0 , 0 , 0) 
 At (0.525 , 0.025 , 0.05 )  Deviation = 0.168028 Body force = (-2.20658 , -13.0084 , -0) 
 At (0.575 , 0.025 , 0.05 )  Deviation = 0.161759 Body force = (-2.04627 , -12.5396 , -0) 
 At (0.625 , 0.025 , 0.05 )  Deviation = 0.155718 Body force = (-1.89756 , -12.0872 , -0) 
 At (0.675 , 0.025 , 0.05 )  Deviation = 0.149897 Body force = (-1.75935 , -11.649 , -0) 
 At (0.725 , 0.025 , 0.05 )  Deviation = 0.144289 Body force = (-1.63108 , -11.2257 , -0) 
 At (0.775 , 0.025 , 0.05 )  Deviation = 0.138886 Body force = (-1.51212 , -10.8173 , -0) 
 At (0.825 , 0.025 , 0.05 )  Deviation = 0.133682 Body force = (-1.40178 , -10.4233 , -0) 
 At (0.875 , 0.025 , 0.05 )  Deviation = 0.128669 Body force = (-1.29942 , -10.0431 , -0) 
[...]
 At (1.775 , 0.725 , 0.05 )  Deviation = 0 Body force = (0 , 0 , 0) 
 At (1.825 , 0.725 , 0.05 )  Deviation = 10 Body force = (0 , 0 , 0) 
 At (1.875 , 0.725 , 0.05 )  Deviation = -0.83582 Body force = (0 , 0 , 0) 
 At (1.925 , 0.725 , 0.05 )  Deviation = 0 Body force = (0 , 0 , 0) 
 At (1.975 , 0.725 , 0.05 )  Deviation = 10 Body force = (0 , 0 , 0) 
 At (0.025 , 0.775 , 0.05 )  Deviation = -0.870392 Body force = (0 , 0 , 0) 
 At (0.075 , 0.775 , 0.05 )  Deviation = 0 Body force = (0 , 0 , 0) 
 At (0.125 , 0.775 , 0.05 )  Deviation = 10 Body force = (0 , 0 , 0) 
 At (0.175 , 0.775 , 0.05 )  Deviation = -0.903692 Body force = (0 , 0 , 0) 
 At (0.225 , 0.775 , 0.05 )  Deviation = 0 Body force = (0 , 0 , 0) 
 At (0.275 , 0.775 , 0.05 )  Deviation = 9.99959 Body force = (0 , 0 , 0) 
 At (0.325 , 0.775 , 0.05 )  Deviation = -0.935758 Body force = (0 , 0 , 0) 
 At (0.375 , 0.775 , 0.05 )  Deviation = 0 Body force = (0 , 0 , 0) 
 At (0.425 , 0.775 , 0.05 )  Deviation = 10.0003 Body force = (0 , 0 , 0) 
 At (0.475 , 0.775 , 0.05 )  Deviation = -0.935758 Body force = (0 , 0 , 0) 
 At (0.525 , 0.775 , 0.05 )  Deviation = 0.168028 Body force = (-2.20649 , -13.0079 , -0) 
 At (0.575 , 0.775 , 0.05 )  Deviation = 0.161759 Body force = (-2.04617 , -12.539 , -0) 
 At (0.625 , 0.775 , 0.05 )  Deviation = 0.155718 Body force = (-1.89745 , -12.0865 , -0) 
 At (0.675 , 0.775 , 0.05 )  Deviation = 0.149897 Body force = (-1.75924 , -11.6483 , -0) 
 At (0.725 , 0.775 , 0.05 )  Deviation = 0.144289 Body force = (-1.63097 , -11.225 , -0) 
 At (0.775 , 0.775 , 0.05 )  Deviation = 0.138886 Body force = (-1.51203 , -10.8168 , -0) 
 At (0.825 , 0.775 , 0.05 )  Deviation = 0.133682 Body force = (-1.40174 , -10.4231 , -0) 
 At (0.875 , 0.775 , 0.05 )  Deviation = 0.12867 Body force = (-1.29945 , -10.0433 , -0) 
 At (0.925 , 0.775 , 0.05 )  Deviation = 0.123843 Body force = (-1.20459 , -9.67696 , -0) 
 At (0.975 , 0.775 , 0.05 )  Deviation = 0.119194 Body force = (-1.11661 , -9.3236 , -0) 
 At (1.025 , 0.775 , 0.05 )  Deviation = 0.114718 Body force = (-1.03503 , -8.98279 , -0) 
 At (1.075 , 0.775 , 0.05 )  Deviation = 0.110407 Body force = (-0.959378 , -8.65411 , -0) 
 At (1.125 , 0.775 , 0.05 )  Deviation = 0.106257 Body force = (-0.889228 , -8.33714 , -0) 
 At (1.175 , 0.775 , 0.05 )  Deviation = 0.102261 Body force = (-0.824182 , -8.03148 , -0) 
 At (1.225 , 0.775 , 0.05 )  Deviation = 0.0984138 Body force = (-0.763871 , -7.73675 , -0) 
 At (1.275 , 0.775 , 0.05 )  Deviation = 0.0947102 Body force = (-0.707953 , -7.45257 , -0) 
 At (1.325 , 0.775 , 0.05 )  Deviation = 0.0911447 Body force = (-0.656108 , -7.17859 , -0) 
 At (1.375 , 0.775 , 0.05 )  Deviation = 0.0877125 Body force = (-0.608042 , -6.91443 , -0) 
 At (1.425 , 0.775 , 0.05 )  Deviation = 0.0844089 Body force = (-0.56349 , -6.65986 , -0) 
 At (1.475 , 0.775 , 0.05 )  Deviation = 0.081225 Body force = (-0.522087 , -6.41352 , -0) 
 At (1.525 , 0.775 , 0.05 )  Deviation = -0.935758 Body force = (0 , 0 , 0) 
 At (1.575 , 0.775 , 0.05 )  Deviation = 0 Body force = (0 , 0 , 0) 
 At (1.625 , 0.775 , 0.05 )  Deviation = 10 Body force = (0 , 0 , 0) 
 At (1.675 , 0.775 , 0.05 )  Deviation = -0.935758 Body force = (0 , 0 , 0) 
 At (1.725 , 0.775 , 0.05 )  Deviation = 0 Body force = (0 , 0 , 0) 
 At (1.775 , 0.775 , 0.05 )  Deviation = 10 Body force = (0 , 0 , 0) 
 At (1.825 , 0.775 , 0.05 )  Deviation = -0.935758 Body force = (0 , 0 , 0) 
 At (1.875 , 0.775 , 0.05 )  Deviation = 0 Body force = (0 , 0 , 0) 
 At (1.925 , 0.775 , 0.05 )  Deviation = 10 Body force = (0 , 0 , 0) 
 At (1.975 , 0.775 , 0.05 )  Deviation = -5.83791e-10 Body force = (0 , 0 , 0) 
 At (0.025 , 0.825 , 0.05 )  Deviation = 0 Body force = (0 , 0 , 0) 
 At (0.075 , 0.825 , 0.05 )  Deviation = 10 Body force = (0 , 0 , 0) 
 At (0.125 , 0.825 , 0.05 )  Deviation = -9.07907e-10 Body force = (0 , 0 , 0) 
 At (0.175 , 0.825 , 0.05 )  Deviation = 0 Body force = (0 , 0 , 0) 
 At (0.225 , 0.825 , 0.05 )  Deviation = 10 Body force = (0 , 0 , 0) 
 At (0.275 , 0.825 , 0.05 )  Deviation = -1.05956e-09 Body force = (0 , 0 , 0) 
 At (0.325 , 0.825 , 0.05 )  Deviation = 0 Body force = (0 , 0 , 0) 
 At (0.375 , 0.825 , 0.05 )  Deviation = 10 Body force = (0 , 0 , 0) 
 At (0.425 , 0.825 , 0.05 )  Deviation = -1.12415e-09 Body force = (0 , 0 , 0) 
 At (0.475 , 0.825 , 0.05 )  Deviation = 0 Body force = (0 , 0 , 0) 
 At (0.525 , 0.825 , 0.05 )  Deviation = 0.168028 Body force = (-2.20649 , -13.0079 , -0) 
 At (0.575 , 0.825 , 0.05 )  Deviation = 0.161759 Body force = (-2.04617 , -12.539 , -0) 
 At (0.625 , 0.825 , 0.05 )  Deviation = 0.155718 Body force = (-1.89745 , -12.0865 , -0) 
 At (0.675 , 0.825 , 0.05 )  Deviation = 0.149897 Body force = (-1.75924 , -11.6483 , -0) 
 At (0.725 , 0.825 , 0.05 )  Deviation = 0.144289 Body force = (-1.63097 , -11.225 , -0) 
 At (0.775 , 0.825 , 0.05 )  Deviation = 0.138886 Body force = (-1.51203 , -10.8168 , -0) 
 At (0.825 , 0.825 , 0.05 )  Deviation = 0.133682 Body force = (-1.40174 , -10.4231 , -0) 
 At (0.875 , 0.825 , 0.05 )  Deviation = 0.12867 Body force = (-1.29945 , -10.0433 , -0) 
 At (0.925 , 0.825 , 0.05 )  Deviation = 0.123843 Body force = (-1.20459 , -9.67696 , -0) 
 At (0.975 , 0.825 , 0.05 )  Deviation = 0.119194 Body force = (-1.11661 , -9.3236 , -0) 
 At (1.025 , 0.825 , 0.05 )  Deviation = 0.114718 Body force = (-1.03503 , -8.98279 , -0) 
 At (1.075 , 0.825 , 0.05 )  Deviation = 0.110407 Body force = (-0.959378 , -8.65411 , -0) 
 At (1.125 , 0.825 , 0.05 )  Deviation = 0.106257 Body force = (-0.889228 , -8.33714 , -0) 
 At (1.175 , 0.825 , 0.05 )  Deviation = 0.102261 Body force = (-0.824182 , -8.03148 , -0) 
 At (1.225 , 0.825 , 0.05 )  Deviation = 0.0984138 Body force = (-0.763871 , -7.73675 , -0) 
 At (1.275 , 0.825 , 0.05 )  Deviation = 0.0947102 Body force = (-0.707953 , -7.45257 , -0) 
 At (1.325 , 0.825 , 0.05 )  Deviation = 0.0911447 Body force = (-0.656108 , -7.17859 , -0) 
 At (1.375 , 0.825 , 0.05 )  Deviation = 0.0877125 Body force = (-0.608042 , -6.91443 , -0) 
 At (1.425 , 0.825 , 0.05 )  Deviation = 0.0844089 Body force = (-0.56349 , -6.65986 , -0) 
 At (1.475 , 0.825 , 0.05 )  Deviation = 0.081225 Body force = (-0.522087 , -6.41352 , -0) 
 At (1.525 , 0.825 , 0.05 )  Deviation = 0 Body force = (0 , 0 , 0) 
 At (1.575 , 0.825 , 0.05 )  Deviation = 9.9993 Body force = (0 , 0 , 0) 
 At (1.625 , 0.825 , 0.05 )  Deviation = -0.127737 Body force = (0 , 0 , 0) 
 At (1.675 , 0.825 , 0.05 )  Deviation = 0 Body force = (0 , 0 , 0) 
 At (1.725 , 0.825 , 0.05 )  Deviation = 10.0001 Body force = (0 , 0 , 0) 
 At (1.775 , 0.825 , 0.05 )  Deviation = -0.188169 Body force = (0 , 0 , 0) 
 At (1.825 , 0.825 , 0.05 )  Deviation = 0 Body force = (0 , 0 , 0) 
 At (1.875 , 0.825 , 0.05 )  Deviation = 10.0001 Body force = (0 , 0 , 0) 
 At (1.925 , 0.825 , 0.05 )  Deviation = -0.24641 Body force = (0 , 0 , 0) 
 At (1.975 , 0.825 , 0.05 )  Deviation = 0 Body force = (0 , 0 , 0) 
 At (0.025 , 0.875 , 0.05 )  Deviation = 10 Body force = (0 , 0 , 0) 
 At (0.075 , 0.875 , 0.05 )  Deviation = -0.302535 Body force = (0 , 0 , 0) 
 At (0.125 , 0.875 , 0.05 )  Deviation = 0 Body force = (0 , 0 , 0) 
 At (0.175 , 0.875 , 0.05 )  Deviation = 9.99999 Body force = (0 , 0 , 0) 
 At (0.225 , 0.875 , 0.05 )  Deviation = -0.356619 Body force = (0 , 0 , 0) 
 At (0.275 , 0.875 , 0.05 )  Deviation = 0 Body force = (0 , 0 , 0) 
 At (0.325 , 0.875 , 0.05 )  Deviation = 10 Body force = (0 , 0 , 0) 
 At (0.375 , 0.875 , 0.05 )  Deviation = -0.408734 Body force = (0 , 0 , 0) 
 At (0.425 , 0.875 , 0.05 )  Deviation = 0 Body force = (0 , 0 , 0) 
 At (0.475 , 0.875 , 0.05 )  Deviation = 10 Body force = (0 , 0 , 0) 
 At (0.525 , 0.875 , 0.05 )  Deviation = 0.168028 Body force = (-2.20649 , -13.0079 , -0) 
 At (0.575 , 0.875 , 0.05 )  Deviation = 0.161759 Body force = (-2.04617 , -12.539 , -0) 
 At (0.625 , 0.875 , 0.05 )  Deviation = 0.155718 Body force = (-1.89745 , -12.0865 , -0) 
 At (0.675 , 0.875 , 0.05 )  Deviation = 0.149897 Body force = (-1.75924 , -11.6483 , -0) 
 At (0.725 , 0.875 , 0.05 )  Deviation = 0.144289 Body force = (-1.63097 , -11.225 , -0) 
 At (0.775 , 0.875 , 0.05 )  Deviation = 0.138886 Body force = (-1.51203 , -10.8168 , -0) 
 At (0.825 , 0.875 , 0.05 )  Deviation = 0.133682 Body force = (-1.40174 , -10.4231 , -0) 
 At (0.875 , 0.875 , 0.05 )  Deviation = 0.12867 Body force = (-1.29945 , -10.0433 , -0) 
 At (0.925 , 0.875 , 0.05 )  Deviation = 0.123843 Body force = (-1.20459 , -9.67696 , -0) 
 At (0.975 , 0.875 , 0.05 )  Deviation = 0.119194 Body force = (-1.11661 , -9.3236 , -0) 
 At (1.025 , 0.875 , 0.05 )  Deviation = 0.114718 Body force = (-1.03503 , -8.98279 , -0) 
 At (1.075 , 0.875 , 0.05 )  Deviation = 0.110407 Body force = (-0.959378 , -8.65411 , -0) 
 At (1.125 , 0.875 , 0.05 )  Deviation = 0.106257 Body force = (-0.889228 , -8.33714 , -0) 
 At (1.175 , 0.875 , 0.05 )  Deviation = 0.102261 Body force = (-0.824182 , -8.03148 , -0) 
 At (1.225 , 0.875 , 0.05 )  Deviation = 0.0984138 Body force = (-0.763871 , -7.73675 , -0) 
 At (1.275 , 0.875 , 0.05 )  Deviation = 0.0947102 Body force = (-0.707953 , -7.45257 , -0) 
 At (1.325 , 0.875 , 0.05 )  Deviation = 0.0911447 Body force = (-0.656108 , -7.17859 , -0) 
 At (1.375 , 0.875 , 0.05 )  Deviation = 0.0877125 Body force = (-0.608042 , -6.91443 , -0) 
 At (1.425 , 0.875 , 0.05 )  Deviation = 0.0844089 Body force = (-0.56349 , -6.65986 , -0) 
 At (1.475 , 0.875 , 0.05 )  Deviation = 0.081225 Body force = (-0.522087 , -6.41352 , -0) 
 At (1.525 , 0.875 , 0.05 )  Deviation = 10 Body force = (0 , 0 , 0) 
 At (1.575 , 0.875 , 0.05 )  Deviation = -0.762665 Body force = (0 , 0 , 0) 
 At (1.625 , 0.875 , 0.05 )  Deviation = 0 Body force = (0 , 0 , 0) 
 At (1.675 , 0.875 , 0.05 )  Deviation = 10 Body force = (0 , 0 , 0) 
 At (1.725 , 0.875 , 0.05 )  Deviation = -0.799927 Body force = (0 , 0 , 0) 
 At (1.775 , 0.875 , 0.05 )  Deviation = 0 Body force = (0 , 0 , 0) 
 At (1.825 , 0.875 , 0.05 )  Deviation = 10 Body force = (0 , 0 , 0) 
 At (1.875 , 0.875 , 0.05 )  Deviation = -0.83582 Body force = (0 , 0 , 0) 
 At (1.925 , 0.875 , 0.05 )  Deviation = 0 Body force = (0 , 0 , 0) 
 At (1.975 , 0.875 , 0.05 )  Deviation = 10 Body force = (0 , 0 , 0) 
 At (0.025 , 0.925 , 0.05 )  Deviation = -0.870392 Body force = (0 , 0 , 0) 
 At (0.075 , 0.925 , 0.05 )  Deviation = 0 Body force = (0 , 0 , 0) 
 At (0.125 , 0.925 , 0.05 )  Deviation = 10 Body force = (0 , 0 , 0) 
 At (0.175 , 0.925 , 0.05 )  Deviation = -0.903692 Body force = (0 , 0 , 0) 
 At (0.225 , 0.925 , 0.05 )  Deviation = 0 Body force = (0 , 0 , 0) 
 At (0.275 , 0.925 , 0.05 )  Deviation = 9.99959 Body force = (0 , 0 , 0) 
 At (0.325 , 0.925 , 0.05 )  Deviation = -0.935758 Body force = (0 , 0 , 0) 
 At (0.375 , 0.925 , 0.05 )  Deviation = 0 Body force = (0 , 0 , 0) 
 At (0.425 , 0.925 , 0.05 )  Deviation = 10.0003 Body force = (0 , 0 , 0) 
 At (0.475 , 0.925 , 0.05 )  Deviation = -0.935758 Body force = (0 , 0 , 0) 
 At (0.525 , 0.925 , 0.05 )  Deviation = 0.168028 Body force = (-2.20649 , -13.0079 , -0) 
 At (0.575 , 0.925 , 0.05 )  Deviation = 0.161759 Body force = (-2.04617 , -12.539 , -0) 
 At (0.625 , 0.925 , 0.05 )  Deviation = 0.155718 Body force = (-1.89745 , -12.0865 , -0) 
 At (0.675 , 0.925 , 0.05 )  Deviation = 0.149897 Body force = (-1.75924 , -11.6483 , -0) 
 At (0.725 , 0.925 , 0.05 )  Deviation = 0.144289 Body force = (-1.63097 , -11.225 , -0) 
 At (0.775 , 0.925 , 0.05 )  Deviation = 0.138886 Body force = (-1.51203 , -10.8168 , -0) 
 At (0.825 , 0.925 , 0.05 )  Deviation = 0.133682 Body force = (-1.40174 , -10.4231 , -0) 
 At (0.875 , 0.925 , 0.05 )  Deviation = 0.12867 Body force = (-1.29945 , -10.0433 , -0) 
 At (0.925 , 0.925 , 0.05 )  Deviation = 0.123843 Body force = (-1.20459 , -9.67696 , -0) 
 At (0.975 , 0.925 , 0.05 )  Deviation = 0.119194 Body force = (-1.11661 , -9.3236 , -0) 
 At (1.025 , 0.925 , 0.05 )  Deviation = 0.114718 Body force = (-1.03503 , -8.98279 , -0) 
 At (1.075 , 0.925 , 0.05 )  Deviation = 0.110407 Body force = (-0.959378 , -8.65411 , -0) 
 At (1.125 , 0.925 , 0.05 )  Deviation = 0.106257 Body force = (-0.889228 , -8.33714 , -0) 
 At (1.175 , 0.925 , 0.05 )  Deviation = 0.102261 Body force = (-0.824182 , -8.03148 , -0) 
 At (1.225 , 0.925 , 0.05 )  Deviation = 0.0984138 Body force = (-0.763871 , -7.73675 , -0) 
 At (1.275 , 0.925 , 0.05 )  Deviation = 0.0947102 Body force = (-0.707953 , -7.45257 , -0) 
 At (1.325 , 0.925 , 0.05 )  Deviation = 0.0911447 Body force = (-0.656108 , -7.17859 , -0) 
 At (1.375 , 0.925 , 0.05 )  Deviation = 0.0877125 Body force = (-0.608042 , -6.91443 , -0) 
 At (1.425 , 0.925 , 0.05 )  Deviation = 0.0844089 Body force = (-0.56349 , -6.65986 , -0) 
 At (1.475 , 0.925 , 0.05 )  Deviation = 0.081225 Body force = (-0.522087 , -6.41352 , -0) 
 At (1.525 , 0.925 , 0.05 )  Deviation = -0.935758 Body force = (0 , 0 , 0) 
 At (1.575 , 0.925 , 0.05 )  Deviation = 0 Body force = (0 , 0 , 0) 
 At (1.625 , 0.925 , 0.05 )  Deviation = 10 Body force = (0 , 0 , 0) 
 At (1.675 , 0.925 , 0.05 )  Deviation = -0.935758 Body force = (0 , 0 , 0) 
 At (1.725 , 0.925 , 0.05 )  Deviation = 0 Body force = (0 , 0 , 0) 
 At (1.775 , 0.925 , 0.05 )  Deviation = 10 Body force = (0 , 0 , 0) 
 At (1.825 , 0.925 , 0.05 )  Deviation = -0.935758 Body force = (0 , 0 , 0) 
 At (1.875 , 0.925 , 0.05 )  Deviation = 0 Body force = (0 , 0 , 0) 
 At (1.925 , 0.925 , 0.05 )  Deviation = 10 Body force = (0 , 0 , 0) 
 At (1.975 , 0.925 , 0.05 )  Deviation = -8.70889e-10 Body force = (0 , 0 , 0) 
 At (0.025 , 0.975 , 0.05 )  Deviation = 0 Body force = (0 , 0 , 0) 
 At (0.075 , 0.975 , 0.05 )  Deviation = 10 Body force = (0 , 0 , 0) 
 At (0.125 , 0.975 , 0.05 )  Deviation = -1.37844e-09 Body force = (0 , 0 , 0) 
 At (0.175 , 0.975 , 0.05 )  Deviation = 0 Body force = (0 , 0 , 0) 
 At (0.225 , 0.975 , 0.05 )  Deviation = 10 Body force = (0 , 0 , 0) 
 At (0.275 , 0.975 , 0.05 )  Deviation = -1.64221e-09 Body force = (0 , 0 , 0) 
 At (0.325 , 0.975 , 0.05 )  Deviation = 0 Body force = (0 , 0 , 0) 
 At (0.375 , 0.975 , 0.05 )  Deviation = 10 Body force = (0 , 0 , 0) 
 At (0.425 , 0.975 , 0.05 )  Deviation = -1.78119e-09 Body force = (0 , 0 , 0) 
 At (0.475 , 0.975 , 0.05 )  Deviation = 0 Body force = (0 , 0 , 0) 
 At (0.525 , 0.975 , 0.05 )  Deviation = 0.168028 Body force = (-2.20649 , -13.0079 , -0) 
 At (0.575 , 0.975 , 0.05 )  Deviation = 0.161759 Body force = (-2.04617 , -12.539 , -0) 
 At (0.625 , 0.975 , 0.05 )  Deviation = 0.155718 Body force = (-1.89745 , -12.0865 , -0) 
 At (0.675 , 0.975 , 0.05 )  Deviation = 0.149897 Body force = (-1.75924 , -11.6483 , -0) 
 At (0.725 , 0.975 , 0.05 )  Deviation = 0.144289 Body force = (-1.63097 , -11.225 , -0) 
 At (0.775 , 0.975 , 0.05 )  Deviation = 0.138886 Body force = (-1.51203 , -10.8168 , -0) 
 At (0.825 , 0.975 , 0.05 )  Deviation = 0.133682 Body force = (-1.40174 , -10.4231 , -0) 
 At (0.875 , 0.975 , 0.05 )  Deviation = 0.12867 Body force = (-1.29945 , -10.0433 , -0) 
 At (0.925 , 0.975 , 0.05 )  Deviation = 0.123843 Body force = (-1.20459 , -9.67696 , -0) 
 At (0.975 , 0.975 , 0.05 )  Deviation = 0.119194 Body force = (-1.11661 , -9.3236 , -0) 
 At (1.025 , 0.975 , 0.05 )  Deviation = 0.114718 Body force = (-1.03503 , -8.98279 , -0) 
 At (1.075 , 0.975 , 0.05 )  Deviation = 0.110407 Body force = (-0.959378 , -8.65411 , -0) 
 At (1.125 , 0.975 , 0.05 )  Deviation = 0.106257 Body force = (-0.889228 , -8.33714 , -0) 
 At (1.175 , 0.975 , 0.05 )  Deviation = 0.102261 Body force = (-0.824182 , -8.03148 , -0) 
 At (1.225 , 0.975 , 0.05 )  Deviation = 0.0984139 Body force = (-0.763871 , -7.73675 , -0) 
 At (1.275 , 0.975 , 0.05 )  Deviation = 0.0947102 Body force = (-0.707953 , -7.45257 , -0) 
 At (1.325 , 0.975 , 0.05 )  Deviation = 0.0911447 Body force = (-0.656108 , -7.17859 , -0) 
 At (1.375 , 0.975 , 0.05 )  Deviation = 0.0877125 Body force = (-0.608042 , -6.91443 , -0) 
 At (1.425 , 0.975 , 0.05 )  Deviation = 0.0844089 Body force = (-0.56349 , -6.65986 , -0) 
 At (1.475 , 0.975 , 0.05 )  Deviation = 0.081225 Body force = (-0.522087 , -6.41352 , -0) 
 At (1.525 , 0.975 , 0.05 )  Deviation = 0 Body force = (0 , 0 , 0) 
 At (1.575 , 0.975 , 0.05 )  Deviation = 9.9993 Body force = (0 , 0 , 0) 
 At (1.625 , 0.975 , 0.05 )  Deviation = -0.127737 Body force = (0 , 0 , 0) 
 At (1.675 , 0.975 , 0.05 )  Deviation = 0 Body force = (0 , 0 , 0) 
 At (1.725 , 0.975 , 0.05 )  Deviation = 10.0001 Body force = (0 , 0 , 0) 
 At (1.775 , 0.975 , 0.05 )  Deviation = -0.188169 Body force = (0 , 0 , 0) 
 At (1.825 , 0.975 , 0.05 )  Deviation = 0 Body force = (0 , 0 , 0) 
 At (1.875 , 0.975 , 0.05 )  Deviation = 10.0001 Body force = (0 , 0 , 0) 
 At (1.925 , 0.975 , 0.05 )  Deviation = -0.24641 Body force = (0 , 0 , 0) 
 At (1.975 , 0.975 , 0.05 )  Deviation = 0 Body force = (0 , 0 , 0) 
**codeSetValue**
smoothSolver:  Solving for Ux, Initial residual = 0.000299012, Final residual = 5.87037e-06, No Iterations 2
smoothSolver:  Solving for Uy, Initial residual = 1.13558e-08, Final residual = 1.36993e-09, No Iterations 1
**codeCorrect**
GAMG:  Solving for p, Initial residual = 8.9644e-06, Final residual = 5.23833e-07, No Iterations 2
time step continuity errors : sum local = 4.32004e-08, global = -2.83687e-09, cumulative = -0.000268435
**codeCorrect**
ExecutionTime = 19.69 s  ClockTime = 44 s

Time = 71

**codeSetValue**
smoothSolver:  Solving for Ux, Initial residual = 0.000223562, Final residual = 4.35944e-06, No Iterations 2
smoothSolver:  Solving for Uy, Initial residual = 9.92361e-09, Final residual = 9.92361e-09, No Iterations 0
**codeCorrect**
GAMG:  Solving for p, Initial residual = 8.26911e-06, Final residual = 6.44195e-07, No Iterations 2
time step continuity errors : sum local = 5.31275e-08, global = -1.5674e-10, cumulative = -0.000268435
**codeCorrect**
ExecutionTime = 19.69 s  ClockTime = 44 s

Time = 72

**codeSetValue**
smoothSolver:  Solving for Ux, Initial residual = 0.000134971, Final residual = 1.94595e-06, No Iterations 2
smoothSolver:  Solving for Uy, Initial residual = 1.0872e-08, Final residual = 1.12608e-09, No Iterations 1
**codeCorrect**
GAMG:  Solving for p, Initial residual = 7.61079e-06, Final residual = 5.178e-07, No Iterations 2
time step continuity errors : sum local = 4.27061e-08, global = -1.12259e-09, cumulative = -0.000268436
**codeCorrect**
ExecutionTime = 19.7 s  ClockTime = 44 s

Time = 73

**codeSetValue**
smoothSolver:  Solving for Ux, Initial residual = 0.000167313, Final residual = 3.32595e-06, No Iterations 2
smoothSolver:  Solving for Uy, Initial residual = 6.00069e-09, Final residual = 6.00069e-09, No Iterations 0
**codeCorrect**
GAMG:  Solving for p, Initial residual = 6.13209e-06, Final residual = 3.21022e-07, No Iterations 2
time step continuity errors : sum local = 2.64776e-08, global = 4.37692e-09, cumulative = -0.000268432
**codeCorrect**
ExecutionTime = 19.7 s  ClockTime = 44 s

Time = 74

**codeSetValue**
smoothSolver:  Solving for Ux, Initial residual = 0.000136111, Final residual = 2.95795e-06, No Iterations 2
smoothSolver:  Solving for Uy, Initial residual = 6.31919e-09, Final residual = 6.31919e-09, No Iterations 0
**codeCorrect**
GAMG:  Solving for p, Initial residual = 6.01012e-06, Final residual = 4.43499e-07, No Iterations 2
time step continuity errors : sum local = 3.65791e-08, global = 4.54319e-10, cumulative = -0.000268431
**codeCorrect**
ExecutionTime = 19.7 s  ClockTime = 44 s

Time = 75

**codeSetValue**
smoothSolver:  Solving for Ux, Initial residual = 9.20423e-05, Final residual = 1.19112e-06, No Iterations 2
smoothSolver:  Solving for Uy, Initial residual = 7.29203e-09, Final residual = 7.29203e-09, No Iterations 0
**codeCorrect**
GAMG:  Solving for p, Initial residual = 5.2777e-06, Final residual = 4.27567e-07, No Iterations 2
time step continuity errors : sum local = 3.52638e-08, global = -4.29564e-09, cumulative = -0.000268436
**codeCorrect**
ExecutionTime = 19.72 s  ClockTime = 44 s


SIMPLE solution converged in 75 iterations

End

