/*---------------------------------------------------------------------------*\
| =========                 |                                                 |
| \\      /  F ield         | OpenFOAM: The Open Source CFD Toolbox           |
|  \\    /   O peration     | Version:  5.x                                   |
|   \\  /    A nd           | Web:      www.OpenFOAM.org                      |
|    \\/     M anipulation  |                                                 |
\*---------------------------------------------------------------------------*/
Build  : 5.x-197d9d3bf20a
Exec   : simpleFoam
Date   : Jan 29 2019
Time   : 23:23:28
Host   : "palak"
PID    : 2524
I/O    : uncollated
Case   : /home/palak/OpenFOAM/palak-5.0/run/Z1flatanalytical
nProcs : 1
sigFpe : Enabling floating point exception trapping (FOAM_SIGFPE).
fileModificationChecking : Monitoring run-time modified files using timeStampMaster (fileModificationSkew 10)
allowSystemOperations : Allowing user-supplied system call operations

// * * * * * * * * * * * * * * * * * * * * * * * * * * * * * * * * * * * * * //
Create time

Create mesh for time = 0


SIMPLE: convergence criteria
    field p	 tolerance 0.001
    field U	 tolerance 0.0001
    field "(k|epsilon)"	 tolerance 0.0001

Reading field p

Reading field U

Reading/calculating face flux field phi

Selecting incompressible transport model Newtonian
Selecting turbulence model type laminar
Selecting laminar stress model Stokes
No MRF models present

Creating finite volume options from "constant/fvOptions"

Selecting finite volume options model type vectorCodedSource
    Source: momentumSource
    - selecting all cells
    - selected 800 cell(s) with volume 0.2

Starting time loop

Time = 1

Using dynamicCode for fvOption:: bodyForce at line 25 in "/home/palak/OpenFOAM/palak-5.0/run/Z1flatanalytical/constant/fvOptions.momentumSource.vectorCodedSourceCoeffs"
Creating new library in "dynamicCode/bodyForce/platforms/linux64GccDPInt32Opt/lib/libbodyForce_acc29a0ba3c6b9773298ea1b05fd256aee354a38.so"
Invoking "wmake -s libso /home/palak/OpenFOAM/palak-5.0/run/Z1flatanalytical/dynamicCode/bodyForce"
wmake libso /home/palak/OpenFOAM/palak-5.0/run/Z1flatanalytical/dynamicCode/bodyForce
    wmkdep: codedFvOptionTemplate.C
    Ctoo: codedFvOptionTemplate.C
    ld: /home/palak/OpenFOAM/palak-5.0/run/Z1flatanalytical/dynamicCode/bodyForce/../platforms/linux64GccDPInt32Opt/lib/libbodyForce_acc29a0ba3c6b9773298ea1b05fd256aee354a38.so
Selecting finite volume options model type bodyForce
    Source: bodyForce
    - selecting all cells
    - selected 800 cell(s) with volume 0.2
**codeSetValue**
smoothSolver:  Solving for Ux, Initial residual = 1, Final residual = 0.000190637, No Iterations 1
smoothSolver:  Solving for Uy, Initial residual = 1, Final residual = 0.000190637, No Iterations 1
**codeCorrect**
GAMG:  Solving for p, Initial residual = 1, Final residual = 0.0904549, No Iterations 2
time step continuity errors : sum local = 0.0197872, global = -0.00154357, cumulative = -0.00154357
**codeCorrect**
ExecutionTime = 0.13 s  ClockTime = 21 s

Time = 2

**codeSetValue**
smoothSolver:  Solving for Ux, Initial residual = 0.492718, Final residual = 0.0170025, No Iterations 2
smoothSolver:  Solving for Uy, Initial residual = 0.149174, Final residual = 0.0037919, No Iterations 2
**codeCorrect**
GAMG:  Solving for p, Initial residual = 0.0369158, Final residual = 0.00117777, No Iterations 2
time step continuity errors : sum local = 0.0017901, global = 0.000315875, cumulative = -0.00122769
**codeCorrect**
ExecutionTime = 0.13 s  ClockTime = 21 s

Time = 3

**codeSetValue**
smoothSolver:  Solving for Ux, Initial residual = 0.877362, Final residual = 0.0399606, No Iterations 2
smoothSolver:  Solving for Uy, Initial residual = 0.089202, Final residual = 0.00241108, No Iterations 2
**codeCorrect**
GAMG:  Solving for p, Initial residual = 0.106944, Final residual = 0.00796532, No Iterations 2
time step continuity errors : sum local = 0.0123532, global = 0.000643954, cumulative = -0.000583741
**codeCorrect**
ExecutionTime = 0.15 s  ClockTime = 21 s

Time = 4

**codeSetValue**
smoothSolver:  Solving for Ux, Initial residual = 0.10516, Final residual = 0.0046425, No Iterations 2
smoothSolver:  Solving for Uy, Initial residual = 0.0660818, Final residual = 0.00173765, No Iterations 2
**codeCorrect**
GAMG:  Solving for p, Initial residual = 0.44669, Final residual = 0.0369161, No Iterations 2
time step continuity errors : sum local = 0.0110313, global = 0.000682817, cumulative = 9.90766e-05
**codeCorrect**
ExecutionTime = 0.15 s  ClockTime = 21 s

Time = 5

**codeSetValue**
smoothSolver:  Solving for Ux, Initial residual = 0.529862, Final residual = 0.0284533, No Iterations 2
smoothSolver:  Solving for Uy, Initial residual = 0.0485495, Final residual = 0.00120493, No Iterations 2
**codeCorrect**
GAMG:  Solving for p, Initial residual = 0.0762274, Final residual = 0.00431511, No Iterations 2
time step continuity errors : sum local = 0.00454795, global = -0.000516788, cumulative = -0.000417711
**codeCorrect**
ExecutionTime = 0.16 s  ClockTime = 21 s

Time = 6

**codeSetValue**
smoothSolver:  Solving for Ux, Initial residual = 0.694757, Final residual = 0.0404097, No Iterations 2
smoothSolver:  Solving for Uy, Initial residual = 0.0366583, Final residual = 0.000908972, No Iterations 2
**codeCorrect**
GAMG:  Solving for p, Initial residual = 0.117474, Final residual = 0.0090105, No Iterations 2
time step continuity errors : sum local = 0.00840713, global = 0.000246358, cumulative = -0.000171353
**codeCorrect**
ExecutionTime = 0.16 s  ClockTime = 21 s

Time = 7

**codeSetValue**
smoothSolver:  Solving for Ux, Initial residual = 0.178143, Final residual = 0.008105, No Iterations 2
smoothSolver:  Solving for Uy, Initial residual = 0.0294156, Final residual = 0.000821747, No Iterations 2
**codeCorrect**
GAMG:  Solving for p, Initial residual = 0.370307, Final residual = 0.0311655, No Iterations 2
time step continuity errors : sum local = 0.00793938, global = 0.000119642, cumulative = -5.17109e-05
**codeCorrect**
ExecutionTime = 0.16 s  ClockTime = 21 s

Time = 8

**codeSetValue**
smoothSolver:  Solving for Ux, Initial residual = 0.503175, Final residual = 0.0276166, No Iterations 2
smoothSolver:  Solving for Uy, Initial residual = 0.019608, Final residual = 0.000556878, No Iterations 2
**codeCorrect**
GAMG:  Solving for p, Initial residual = 0.0829534, Final residual = 0.00421772, No Iterations 2
time step continuity errors : sum local = 0.00343641, global = 0.000663285, cumulative = 0.000611574
**codeCorrect**
ExecutionTime = 0.18 s  ClockTime = 21 s

Time = 9

**codeSetValue**
smoothSolver:  Solving for Ux, Initial residual = 0.562508, Final residual = 0.0338956, No Iterations 2
smoothSolver:  Solving for Uy, Initial residual = 0.0136456, Final residual = 0.000416391, No Iterations 2
**codeCorrect**
GAMG:  Solving for p, Initial residual = 0.09969, Final residual = 0.00957376, No Iterations 2
time step continuity errors : sum local = 0.006759, global = -0.000303044, cumulative = 0.00030853
**codeCorrect**
ExecutionTime = 0.18 s  ClockTime = 21 s

Time = 10

 At (0.025 , 0.025 , 0.05 )  Deviation = 6.94157e-310 Body force = (0 , 0 , 0) 
 At (0.075 , 0.025 , 0.05 )  Deviation = 6.94157e-310 Body force = (0 , 0 , 0) 
 At (0.125 , 0.025 , 0.05 )  Deviation = 1.37018e-316 Body force = (0 , 0 , 0) 
 At (0.175 , 0.025 , 0.05 )  Deviation = 1.37018e-316 Body force = (0 , 0 , 0) 
 At (0.225 , 0.025 , 0.05 )  Deviation = 0 Body force = (0 , 0 , 0) 
 At (0.275 , 0.025 , 0.05 )  Deviation = 10.048 Body force = (0 , 0 , 0) 
 At (0.325 , 0.025 , 0.05 )  Deviation = -1.75279 Body force = (0 , 0 , 0) 
 At (0.375 , 0.025 , 0.05 )  Deviation = 0 Body force = (0 , 0 , 0) 
 At (0.425 , 0.025 , 0.05 )  Deviation = 10.0474 Body force = (0 , 0 , 0) 
 At (0.475 , 0.025 , 0.05 )  Deviation = -1.75105 Body force = (0 , 0 , 0) 
 At (0.525 , 0.025 , 0.05 )  Deviation = 0.133094 Body force = (-11.0968 , -82.8826 , -0) 
 At (0.575 , 0.025 , 0.05 )  Deviation = 0.101401 Body force = (-6.48396 , -63.7243 , -0) 
 At (0.625 , 0.025 , 0.05 )  Deviation = 0.0772074 Body force = (-3.78046 , -48.8677 , -0) 
 At (0.675 , 0.025 , 0.05 )  Deviation = 0.0587338 Body force = (-2.19553 , -37.338 , -0) 
 At (0.725 , 0.025 , 0.05 )  Deviation = 0.0446689 Body force = (-1.27302 , -28.4801 , -0) 
 At (0.775 , 0.025 , 0.05 )  Deviation = 0.0340141 Body force = (-0.739876 , -21.7437 , -0) 
 At (0.825 , 0.025 , 0.05 )  Deviation = 0.0259835 Body force = (-0.432896 , -16.6567 , -0) 
 At (0.875 , 0.025 , 0.05 )  Deviation = 0.0199507 Body force = (-0.255966 , -12.8282 , -0) 
 At (0.925 , 0.025 , 0.05 )  Deviation = 0.0154238 Body force = (-0.153451 , -9.9482 , -0) 
 At (0.975 , 0.025 , 0.05 )  Deviation = 0.0120218 Body force = (-0.0934967 , -7.77686 , -0) 
 At (1.025 , 0.025 , 0.05 )  Deviation = 0.00945623 Body force = (-0.0579999 , -6.13332 , -0) 
 At (1.075 , 0.025 , 0.05 )  Deviation = 0.00751133 Body force = (-0.0366763 , -4.88271 , -0) 
 At (1.125 , 0.025 , 0.05 )  Deviation = 0.00602797 Body force = (-0.0236627 , -3.92544 , -0) 
 At (1.175 , 0.025 , 0.05 )  Deviation = 0.0048896 Body force = (-0.0155903 , -3.18843 , -0) 
 At (1.225 , 0.025 , 0.05 )  Deviation = 0.00401094 Body force = (-0.0105007 , -2.618 , -0) 
 At (1.275 , 0.025 , 0.05 )  Deviation = 0.00332994 Body force = (-0.00724237 , -2.17492 , -0) 
 At (1.325 , 0.025 , 0.05 )  Deviation = 0.00280083 Body force = (-0.00512575 , -1.83008 , -0) 
 At (1.375 , 0.025 , 0.05 )  Deviation = 0.0023887 Body force = (-0.00372906 , -1.56112 , -0) 
 At (1.425 , 0.025 , 0.05 )  Deviation = 0.00206741 Body force = (-0.00279356 , -1.35124 , -0) 
 At (1.475 , 0.025 , 0.05 )  Deviation = 0.00181573 Body force = (-0.00215473 , -1.1867 , -0) 
 At (1.525 , 0.025 , 0.05 )  Deviation = -1.63542 Body force = (0 , 0 , 0) 
 At (1.575 , 0.025 , 0.05 )  Deviation = 0 Body force = (0 , 0 , 0) 
 At (1.625 , 0.025 , 0.05 )  Deviation = 10.047 Body force = (0 , 0 , 0) 
 At (1.675 , 0.025 , 0.05 )  Deviation = -1.58643 Body force = (0 , 0 , 0) 
 At (1.725 , 0.025 , 0.05 )  Deviation = 0 Body force = (0 , 0 , 0) 
 At (1.775 , 0.025 , 0.05 )  Deviation = 10.0414 Body force = (0 , 0 , 0) 
 At (1.825 , 0.025 , 0.05 )  Deviation = -1.52823 Body force = (0 , 0 , 0) 
 At (1.875 , 0.025 , 0.05 )  Deviation = 0 Body force = (0 , 0 , 0) 
 At (1.925 , 0.025 , 0.05 )  Deviation = 9.99997 Body force = (0 , 0 , 0) 
 At (1.975 , 0.025 , 0.05 )  Deviation = -1.16605e-05 Body force = (0 , 0 , 0) 
 At (0.025 , 0.075 , 0.05 )  Deviation = 0 Body force = (0 , 0 , 0) 
 At (0.075 , 0.075 , 0.05 )  Deviation = 9.99982 Body force = (0 , 0 , 0) 
 At (0.125 , 0.075 , 0.05 )  Deviation = -5.25525e-05 Body force = (0 , 0 , 0) 
 At (0.175 , 0.075 , 0.05 )  Deviation = 0 Body force = (0 , 0 , 0) 
 At (0.225 , 0.075 , 0.05 )  Deviation = 9.99949 Body force = (0 , 0 , 0) 
 At (0.275 , 0.075 , 0.05 )  Deviation = -9.74831e-05 Body force = (0 , 0 , 0) 
 At (0.325 , 0.075 , 0.05 )  Deviation = 0 Body force = (0 , 0 , 0) 
 At (0.375 , 0.075 , 0.05 )  Deviation = 9.99905 Body force = (0 , 0 , 0) 
 At (0.425 , 0.075 , 0.05 )  Deviation = -0.000137822 Body force = (0 , 0 , 0) 
 At (0.475 , 0.075 , 0.05 )  Deviation = 0 Body force = (0 , 0 , 0) 
 At (0.525 , 0.075 , 0.05 )  Deviation = 0.133096 Body force = (-11.0971 , -82.8843 , -0) 
 At (0.575 , 0.075 , 0.05 )  Deviation = 0.10141 Body force = (-6.48521 , -63.7308 , -0) 
 At (0.625 , 0.075 , 0.05 )  Deviation = 0.0772176 Body force = (-3.7815 , -48.8746 , -0) 
 At (0.675 , 0.075 , 0.05 )  Deviation = 0.05874 Body force = (-2.19599 , -37.342 , -0) 
 At (0.725 , 0.075 , 0.05 )  Deviation = 0.0446684 Body force = (-1.27299 , -28.4797 , -0) 
 At (0.775 , 0.075 , 0.05 )  Deviation = 0.0340092 Body force = (-0.73966 , -21.7404 , -0) 
 At (0.825 , 0.075 , 0.05 )  Deviation = 0.0259773 Body force = (-0.432688 , -16.6527 , -0) 
 At (0.875 , 0.075 , 0.05 )  Deviation = 0.0199468 Body force = (-0.255866 , -12.8257 , -0) 
 At (0.925 , 0.075 , 0.05 )  Deviation = 0.0154236 Body force = (-0.153446 , -9.948 , -0) 
 At (0.975 , 0.075 , 0.05 )  Deviation = 0.0120254 Body force = (-0.0935517 , -7.77913 , -0) 
 At (1.025 , 0.075 , 0.05 )  Deviation = 0.00946252 Body force = (-0.0580768 , -6.13738 , -0) 
 At (1.075 , 0.075 , 0.05 )  Deviation = 0.00751892 Body force = (-0.0367503 , -4.88763 , -0) 
 At (1.125 , 0.075 , 0.05 )  Deviation = 0.00603551 Body force = (-0.0237219 , -3.93034 , -0) 
 At (1.175 , 0.075 , 0.05 )  Deviation = 0.00489593 Body force = (-0.0156306 , -3.19255 , -0) 
 At (1.225 , 0.075 , 0.05 )  Deviation = 0.00401567 Body force = (-0.0105255 , -2.62108 , -0) 
 At (1.275 , 0.075 , 0.05 )  Deviation = 0.00333314 Body force = (-0.00725626 , -2.177 , -0) 
 At (1.325 , 0.075 , 0.05 )  Deviation = 0.00280285 Body force = (-0.00513314 , -1.83139 , -0) 
 At (1.375 , 0.075 , 0.05 )  Deviation = 0.00238946 Body force = (-0.00373142 , -1.56161 , -0) 
 At (1.425 , 0.075 , 0.05 )  Deviation = 0.00206649 Body force = (-0.00279108 , -1.35063 , -0) 
 At (1.475 , 0.075 , 0.05 )  Deviation = 0.00181314 Body force = (-0.00214858 , -1.185 , -0) 
 At (1.525 , 0.075 , 0.05 )  Deviation = 0 Body force = (0 , 0 , 0) 
 At (1.575 , 0.075 , 0.05 )  Deviation = 9.97254 Body force = (0 , 0 , 0) 
 At (1.625 , 0.075 , 0.05 )  Deviation = -0.732612 Body force = (0 , 0 , 0) 
 At (1.675 , 0.075 , 0.05 )  Deviation = 0 Body force = (0 , 0 , 0) 
 At (1.725 , 0.075 , 0.05 )  Deviation = 9.98928 Body force = (0 , 0 , 0) 
 At (1.775 , 0.075 , 0.05 )  Deviation = -0.97679 Body force = (0 , 0 , 0) 
 At (1.825 , 0.075 , 0.05 )  Deviation = 0 Body force = (0 , 0 , 0) 
 At (1.875 , 0.075 , 0.05 )  Deviation = 9.99494 Body force = (0 , 0 , 0) 
 At (1.925 , 0.075 , 0.05 )  Deviation = -1.16329 Body force = (0 , 0 , 0) 
 At (1.975 , 0.075 , 0.05 )  Deviation = 0 Body force = (0 , 0 , 0) 
 At (0.025 , 0.125 , 0.05 )  Deviation = 9.99074 Body force = (0 , 0 , 0) 
 At (0.075 , 0.125 , 0.05 )  Deviation = -1.30531 Body force = (0 , 0 , 0) 
 At (0.125 , 0.125 , 0.05 )  Deviation = 0 Body force = (0 , 0 , 0) 
 At (0.175 , 0.125 , 0.05 )  Deviation = 9.98429 Body force = (0 , 0 , 0) 
 At (0.225 , 0.125 , 0.05 )  Deviation = -1.41328 Body force = (0 , 0 , 0) 
 At (0.275 , 0.125 , 0.05 )  Deviation = 0 Body force = (0 , 0 , 0) 
 At (0.325 , 0.125 , 0.05 )  Deviation = 9.98098 Body force = (0 , 0 , 0) 
 At (0.375 , 0.125 , 0.05 )  Deviation = -1.49536 Body force = (0 , 0 , 0) 
 At (0.425 , 0.125 , 0.05 )  Deviation = 0 Body force = (0 , 0 , 0) 
 At (0.475 , 0.125 , 0.05 )  Deviation = 9.98264 Body force = (0 , 0 , 0) 
 At (0.525 , 0.125 , 0.05 )  Deviation = 0.133102 Body force = (-11.0983 , -82.8888 , -0) 
 At (0.575 , 0.125 , 0.05 )  Deviation = 0.101413 Body force = (-6.4856 , -63.733 , -0) 
 At (0.625 , 0.125 , 0.05 )  Deviation = 0.077217 Body force = (-3.78145 , -48.8744 , -0) 
 At (0.675 , 0.125 , 0.05 )  Deviation = 0.0587379 Body force = (-2.19584 , -37.3406 , -0) 
 At (0.725 , 0.125 , 0.05 )  Deviation = 0.0446668 Body force = (-1.2729 , -28.4786 , -0) 
 At (0.775 , 0.125 , 0.05 )  Deviation = 0.0340094 Body force = (-0.739665 , -21.7405 , -0) 
 At (0.825 , 0.125 , 0.05 )  Deviation = 0.0259793 Body force = (-0.432755 , -16.6539 , -0) 
 At (0.875 , 0.125 , 0.05 )  Deviation = 0.0199501 Body force = (-0.255951 , -12.8278 , -0) 
 At (0.925 , 0.125 , 0.05 )  Deviation = 0.0154275 Body force = (-0.153523 , -9.9505 , -0) 
 At (0.975 , 0.125 , 0.05 )  Deviation = 0.0120292 Body force = (-0.0936112 , -7.7816 , -0) 
 At (1.025 , 0.125 , 0.05 )  Deviation = 0.00946588 Body force = (-0.0581179 , -6.13955 , -0) 
 At (1.075 , 0.125 , 0.05 )  Deviation = 0.00752161 Body force = (-0.0367766 , -4.88936 , -0) 
 At (1.125 , 0.125 , 0.05 )  Deviation = 0.00603748 Body force = (-0.0237373 , -3.9316 , -0) 
 At (1.175 , 0.125 , 0.05 )  Deviation = 0.00489726 Body force = (-0.015639 , -3.1934 , -0) 
 At (1.225 , 0.125 , 0.05 )  Deviation = 0.00401647 Body force = (-0.0105296 , -2.62159 , -0) 
 At (1.275 , 0.125 , 0.05 )  Deviation = 0.00333353 Body force = (-0.00725793 , -2.17725 , -0) 
 At (1.325 , 0.125 , 0.05 )  Deviation = 0.00280287 Body force = (-0.00513319 , -1.8314 , -0) 
 At (1.375 , 0.125 , 0.05 )  Deviation = 0.00238934 Body force = (-0.00373105 , -1.56153 , -0) 
 At (1.425 , 0.125 , 0.05 )  Deviation = 0.0020667 Body force = (-0.00279164 , -1.35077 , -0) 
 At (1.475 , 0.125 , 0.05 )  Deviation = 0.00181444 Body force = (-0.00215164 , -1.18584 , -0) 
 At (1.525 , 0.125 , 0.05 )  Deviation = 10.0395 Body force = (0 , 0 , 0) 
 At (1.575 , 0.125 , 0.05 )  Deviation = -1.72951 Body force = (0 , 0 , 0) 
 At (1.625 , 0.125 , 0.05 )  Deviation = 0 Body force = (0 , 0 , 0) 
 At (1.675 , 0.125 , 0.05 )  Deviation = 10.0435 Body force = (0 , 0 , 0) 
 At (1.725 , 0.125 , 0.05 )  Deviation = -1.73693 Body force = (0 , 0 , 0) 
 At (1.775 , 0.125 , 0.05 )  Deviation = 0 Body force = (0 , 0 , 0) 
 At (1.825 , 0.125 , 0.05 )  Deviation = 10.0461 Body force = (0 , 0 , 0) 
 At (1.875 , 0.125 , 0.05 )  Deviation = -1.74262 Body force = (0 , 0 , 0) 
 At (1.925 , 0.125 , 0.05 )  Deviation = 0 Body force = (0 , 0 , 0) 
 At (1.975 , 0.125 , 0.05 )  Deviation = 10.0475 Body force = (0 , 0 , 0) 
 At (0.025 , 0.175 , 0.05 )  Deviation = -1.74697 Body force = (0 , 0 , 0) 
 At (0.075 , 0.175 , 0.05 )  Deviation = 0 Body force = (0 , 0 , 0) 
 At (0.125 , 0.175 , 0.05 )  Deviation = 10.0481 Body force = (0 , 0 , 0) 
 At (0.175 , 0.175 , 0.05 )  Deviation = -1.75028 Body force = (0 , 0 , 0) 
 At (0.225 , 0.175 , 0.05 )  Deviation = 0 Body force = (0 , 0 , 0) 
 At (0.275 , 0.175 , 0.05 )  Deviation = 10.048 Body force = (0 , 0 , 0) 
 At (0.325 , 0.175 , 0.05 )  Deviation = -1.75278 Body force = (0 , 0 , 0) 
 At (0.375 , 0.175 , 0.05 )  Deviation = 0 Body force = (0 , 0 , 0) 
 At (0.425 , 0.175 , 0.05 )  Deviation = 10.0474 Body force = (0 , 0 , 0) 
 At (0.475 , 0.175 , 0.05 )  Deviation = -1.75104 Body force = (0 , 0 , 0) 
 At (0.525 , 0.175 , 0.05 )  Deviation = 0.133102 Body force = (-11.0984 , -82.8896 , -0) 
 At (0.575 , 0.175 , 0.05 )  Deviation = 0.101411 Body force = (-6.48537 , -63.7319 , -0) 
 At (0.625 , 0.175 , 0.05 )  Deviation = 0.0772138 Body force = (-3.78114 , -48.8724 , -0) 
 At (0.675 , 0.175 , 0.05 )  Deviation = 0.0587346 Body force = (-2.19559 , -37.3385 , -0) 
 At (0.725 , 0.175 , 0.05 )  Deviation = 0.0446646 Body force = (-1.27277 , -28.4772 , -0) 
 At (0.775 , 0.175 , 0.05 )  Deviation = 0.0340081 Body force = (-0.739611 , -21.7397 , -0) 
 At (0.825 , 0.175 , 0.05 )  Deviation = 0.0259788 Body force = (-0.432739 , -16.6536 , -0) 
 At (0.875 , 0.175 , 0.05 )  Deviation = 0.0199499 Body force = (-0.255946 , -12.8277 , -0) 
 At (0.925 , 0.175 , 0.05 )  Deviation = 0.0154274 Body force = (-0.153522 , -9.95047 , -0) 
 At (0.975 , 0.175 , 0.05 )  Deviation = 0.0120293 Body force = (-0.093612 , -7.78163 , -0) 
 At (1.025 , 0.175 , 0.05 )  Deviation = 0.00946612 Body force = (-0.0581208 , -6.13969 , -0) 
 At (1.075 , 0.175 , 0.05 )  Deviation = 0.00752208 Body force = (-0.0367811 , -4.88965 , -0) 
 At (1.125 , 0.175 , 0.05 )  Deviation = 0.00603813 Body force = (-0.0237423 , -3.93201 , -0) 
 At (1.175 , 0.175 , 0.05 )  Deviation = 0.00489804 Body force = (-0.0156439 , -3.19389 , -0) 
 At (1.225 , 0.175 , 0.05 )  Deviation = 0.00401724 Body force = (-0.0105336 , -2.62209 , -0) 
 At (1.275 , 0.175 , 0.05 )  Deviation = 0.00333418 Body force = (-0.00726077 , -2.17767 , -0) 
 At (1.325 , 0.175 , 0.05 )  Deviation = 0.00280333 Body force = (-0.00513487 , -1.8317 , -0) 
 At (1.375 , 0.175 , 0.05 )  Deviation = 0.00238966 Body force = (-0.00373203 , -1.56174 , -0) 
 At (1.425 , 0.175 , 0.05 )  Deviation = 0.00206719 Body force = (-0.00279296 , -1.35109 , -0) 
 At (1.475 , 0.175 , 0.05 )  Deviation = 0.00181542 Body force = (-0.00215396 , -1.18648 , -0) 
 At (1.525 , 0.175 , 0.05 )  Deviation = -1.63541 Body force = (0 , 0 , 0) 
 At (1.575 , 0.175 , 0.05 )  Deviation = 0 Body force = (0 , 0 , 0) 
 At (1.625 , 0.175 , 0.05 )  Deviation = 10.047 Body force = (0 , 0 , 0) 
 At (1.675 , 0.175 , 0.05 )  Deviation = -1.58642 Body force = (0 , 0 , 0) 
 At (1.725 , 0.175 , 0.05 )  Deviation = 0 Body force = (0 , 0 , 0) 
 At (1.775 , 0.175 , 0.05 )  Deviation = 10.0414 Body force = (0 , 0 , 0) 
 At (1.825 , 0.175 , 0.05 )  Deviation = -1.52822 Body force = (0 , 0 , 0) 
 At (1.875 , 0.175 , 0.05 )  Deviation = 0 Body force = (0 , 0 , 0) 
 At (1.925 , 0.175 , 0.05 )  Deviation = 9.99997 Body force = (0 , 0 , 0) 
 At (1.975 , 0.175 , 0.05 )  Deviation = -7.75856e-06 Body force = (0 , 0 , 0) 
 At (0.025 , 0.225 , 0.05 )  Deviation = 0 Body force = (0 , 0 , 0) 
 At (0.075 , 0.225 , 0.05 )  Deviation = 9.99982 Body force = (0 , 0 , 0) 
 At (0.125 , 0.225 , 0.05 )  Deviation = -3.50832e-05 Body force = (0 , 0 , 0) 
 At (0.175 , 0.225 , 0.05 )  Deviation = 0 Body force = (0 , 0 , 0) 
 At (0.225 , 0.225 , 0.05 )  Deviation = 9.99949 Body force = (0 , 0 , 0) 
 At (0.275 , 0.225 , 0.05 )  Deviation = -6.54026e-05 Body force = (0 , 0 , 0) 
 At (0.325 , 0.225 , 0.05 )  Deviation = 0 Body force = (0 , 0 , 0) 
 At (0.375 , 0.225 , 0.05 )  Deviation = 9.99906 Body force = (0 , 0 , 0) 
 At (0.425 , 0.225 , 0.05 )  Deviation = -9.26633e-05 Body force = (0 , 0 , 0) 
 At (0.475 , 0.225 , 0.05 )  Deviation = 0 Body force = (0 , 0 , 0) 
 At (0.525 , 0.225 , 0.05 )  Deviation = 0.133102 Body force = (-11.0984 , -82.8895 , -0) 
 At (0.575 , 0.225 , 0.05 )  Deviation = 0.101409 Body force = (-6.48512 , -63.7308 , -0) 
 At (0.625 , 0.225 , 0.05 )  Deviation = 0.0772109 Body force = (-3.78086 , -48.8706 , -0) 
 At (0.675 , 0.225 , 0.05 )  Deviation = 0.0587315 Body force = (-2.19536 , -37.3366 , -0) 
 At (0.725 , 0.225 , 0.05 )  Deviation = 0.0446617 Body force = (-1.2726 , -28.4753 , -0) 
 At (0.775 , 0.225 , 0.05 )  Deviation = 0.0340055 Body force = (-0.739498 , -21.738 , -0) 
 At (0.825 , 0.225 , 0.05 )  Deviation = 0.0259766 Body force = (-0.432664 , -16.6522 , -0) 
 At (0.875 , 0.225 , 0.05 )  Deviation = 0.019948 Body force = (-0.255896 , -12.8265 , -0) 
 At (0.925 , 0.225 , 0.05 )  Deviation = 0.0154259 Body force = (-0.153492 , -9.9495 , -0) 
 At (0.975 , 0.225 , 0.05 )  Deviation = 0.0120283 Body force = (-0.0935967 , -7.781 , -0) 
 At (1.025 , 0.225 , 0.05 )  Deviation = 0.00946572 Body force = (-0.0581158 , -6.13943 , -0) 
 At (1.075 , 0.225 , 0.05 )  Deviation = 0.0075222 Body force = (-0.0367822 , -4.88972 , -0) 
 At (1.125 , 0.225 , 0.05 )  Deviation = 0.00603865 Body force = (-0.0237463 , -3.93234 , -0) 
 At (1.175 , 0.225 , 0.05 )  Deviation = 0.00489878 Body force = (-0.0156486 , -3.19437 , -0) 
 At (1.225 , 0.225 , 0.05 )  Deviation = 0.00401804 Body force = (-0.0105378 , -2.6226 , -0) 
 At (1.275 , 0.225 , 0.05 )  Deviation = 0.00333487 Body force = (-0.00726374 , -2.17811 , -0) 
 At (1.325 , 0.225 , 0.05 )  Deviation = 0.00280381 Body force = (-0.00513662 , -1.83201 , -0) 
 At (1.375 , 0.225 , 0.05 )  Deviation = 0.00238995 Body force = (-0.00373293 , -1.56192 , -0) 
 At (1.425 , 0.225 , 0.05 )  Deviation = 0.00206741 Body force = (-0.00279355 , -1.35123 , -0) 
 At (1.475 , 0.225 , 0.05 )  Deviation = 0.00181571 Body force = (-0.00215464 , -1.18667 , -0) 
 At (1.525 , 0.225 , 0.05 )  Deviation = 0 Body force = (0 , 0 , 0) 
 At (1.575 , 0.225 , 0.05 )  Deviation = 9.97254 Body force = (0 , 0 , 0) 
 At (1.625 , 0.225 , 0.05 )  Deviation = -0.732604 Body force = (0 , 0 , 0) 
 At (1.675 , 0.225 , 0.05 )  Deviation = 0 Body force = (0 , 0 , 0) 
 At (1.725 , 0.225 , 0.05 )  Deviation = 9.98927 Body force = (0 , 0 , 0) 
 At (1.775 , 0.225 , 0.05 )  Deviation = -0.976793 Body force = (0 , 0 , 0) 
 At (1.825 , 0.225 , 0.05 )  Deviation = 0 Body force = (0 , 0 , 0) 
 At (1.875 , 0.225 , 0.05 )  Deviation = 9.99493 Body force = (0 , 0 , 0) 
 At (1.925 , 0.225 , 0.05 )  Deviation = -1.16331 Body force = (0 , 0 , 0) 
 At (1.975 , 0.225 , 0.05 )  Deviation = 0 Body force = (0 , 0 , 0) 
 At (0.025 , 0.275 , 0.05 )  Deviation = 9.99073 Body force = (0 , 0 , 0) 
 At (0.075 , 0.275 , 0.05 )  Deviation = -1.30532 Body force = (0 , 0 , 0) 
 At (0.125 , 0.275 , 0.05 )  Deviation = 0 Body force = (0 , 0 , 0) 
 At (0.175 , 0.275 , 0.05 )  Deviation = 9.98428 Body force = (0 , 0 , 0) 
 At (0.225 , 0.275 , 0.05 )  Deviation = -1.4133 Body force = (0 , 0 , 0) 
 At (0.275 , 0.275 , 0.05 )  Deviation = 0 Body force = (0 , 0 , 0) 
 At (0.325 , 0.275 , 0.05 )  Deviation = 9.98097 Body force = (0 , 0 , 0) 
 At (0.375 , 0.275 , 0.05 )  Deviation = -1.49538 Body force = (0 , 0 , 0) 
 At (0.425 , 0.275 , 0.05 )  Deviation = 0 Body force = (0 , 0 , 0) 
 At (0.475 , 0.275 , 0.05 )  Deviation = 9.98264 Body force = (0 , 0 , 0) 
 At (0.525 , 0.275 , 0.05 )  Deviation = 0.133102 Body force = (-11.0984 , -82.8899 , -0) 
 At (0.575 , 0.275 , 0.05 )  Deviation = 0.101408 Body force = (-6.48499 , -63.7302 , -0) 
 At (0.625 , 0.275 , 0.05 )  Deviation = 0.0772089 Body force = (-3.78066 , -48.8693 , -0) 
 At (0.675 , 0.275 , 0.05 )  Deviation = 0.058729 Body force = (-2.19517 , -37.3349 , -0) 
 At (0.725 , 0.275 , 0.05 )  Deviation = 0.044659 Body force = (-1.27245 , -28.4736 , -0) 
 At (0.775 , 0.275 , 0.05 )  Deviation = 0.0340029 Body force = (-0.739385 , -21.7364 , -0) 
 At (0.825 , 0.275 , 0.05 )  Deviation = 0.0259742 Body force = (-0.432584 , -16.6507 , -0) 
 At (0.875 , 0.275 , 0.05 )  Deviation = 0.0199459 Body force = (-0.255843 , -12.8251 , -0) 
 At (0.925 , 0.275 , 0.05 )  Deviation = 0.0154242 Body force = (-0.153459 , -9.94842 , -0) 
 At (0.975 , 0.275 , 0.05 )  Deviation = 0.0120271 Body force = (-0.0935779 , -7.78022 , -0) 
 At (1.025 , 0.275 , 0.05 )  Deviation = 0.009465 Body force = (-0.058107 , -6.13896 , -0) 
 At (1.075 , 0.275 , 0.05 )  Deviation = 0.00752193 Body force = (-0.0367796 , -4.88955 , -0) 
 At (1.125 , 0.275 , 0.05 )  Deviation = 0.00603873 Body force = (-0.0237469 , -3.93239 , -0) 
 At (1.175 , 0.275 , 0.05 )  Deviation = 0.00489909 Body force = (-0.0156506 , -3.19456 , -0) 
 At (1.225 , 0.275 , 0.05 )  Deviation = 0.00401845 Body force = (-0.0105399 , -2.62286 , -0) 
 At (1.275 , 0.275 , 0.05 )  Deviation = 0.00333527 Body force = (-0.00726548 , -2.17837 , -0) 
 At (1.325 , 0.275 , 0.05 )  Deviation = 0.00280412 Body force = (-0.00513773 , -1.8322 , -0) 
 At (1.375 , 0.275 , 0.05 )  Deviation = 0.00239012 Body force = (-0.00373346 , -1.56203 , -0) 
 At (1.425 , 0.275 , 0.05 )  Deviation = 0.00206748 Body force = (-0.00279372 , -1.35127 , -0) 
 At (1.475 , 0.275 , 0.05 )  Deviation = 0.00181571 Body force = (-0.00215465 , -1.18667 , -0) 
 At (1.525 , 0.275 , 0.05 )  Deviation = 10.0395 Body force = (0 , 0 , 0) 
 At (1.575 , 0.275 , 0.05 )  Deviation = -1.72952 Body force = (0 , 0 , 0) 
 At (1.625 , 0.275 , 0.05 )  Deviation = 0 Body force = (0 , 0 , 0) 
 At (1.675 , 0.275 , 0.05 )  Deviation = 10.0435 Body force = (0 , 0 , 0) 
 At (1.725 , 0.275 , 0.05 )  Deviation = -1.73694 Body force = (0 , 0 , 0) 
 At (1.775 , 0.275 , 0.05 )  Deviation = 0 Body force = (0 , 0 , 0) 
 At (1.825 , 0.275 , 0.05 )  Deviation = 10.0461 Body force = (0 , 0 , 0) 
 At (1.875 , 0.275 , 0.05 )  Deviation = -1.74262 Body force = (0 , 0 , 0) 
 At (1.925 , 0.275 , 0.05 )  Deviation = 0 Body force = (0 , 0 , 0) 
 At (1.975 , 0.275 , 0.05 )  Deviation = 10.0475 Body force = (0 , 0 , 0) 
 At (0.025 , 0.325 , 0.05 )  Deviation = -1.74697 Body force = (0 , 0 , 0) 
 At (0.075 , 0.325 , 0.05 )  Deviation = 0 Body force = (0 , 0 , 0) 
 At (0.125 , 0.325 , 0.05 )  Deviation = 10.0481 Body force = (0 , 0 , 0) 
 At (0.175 , 0.325 , 0.05 )  Deviation = -1.75028 Body force = (0 , 0 , 0) 
 At (0.225 , 0.325 , 0.05 )  Deviation = 0 Body force = (0 , 0 , 0) 
 At (0.275 , 0.325 , 0.05 )  Deviation = 10.048 Body force = (0 , 0 , 0) 
 At (0.325 , 0.325 , 0.05 )  Deviation = -1.75278 Body force = (0 , 0 , 0) 
 At (0.375 , 0.325 , 0.05 )  Deviation = 0 Body force = (0 , 0 , 0) 
 At (0.425 , 0.325 , 0.05 )  Deviation = 10.0474 Body force = (0 , 0 , 0) 
 At (0.475 , 0.325 , 0.05 )  Deviation = -1.75104 Body force = (0 , 0 , 0) 
 At (0.525 , 0.325 , 0.05 )  Deviation = 0.133102 Body force = (-11.0985 , -82.8901 , -0) 
 At (0.575 , 0.325 , 0.05 )  Deviation = 0.101407 Body force = (-6.48485 , -63.7295 , -0) 
 At (0.625 , 0.325 , 0.05 )  Deviation = 0.077207 Body force = (-3.78047 , -48.8681 , -0) 
 At (0.675 , 0.325 , 0.05 )  Deviation = 0.0587267 Body force = (-2.19499 , -37.3334 , -0) 
 At (0.725 , 0.325 , 0.05 )  Deviation = 0.0446565 Body force = (-1.27231 , -28.472 , -0) 
 At (0.775 , 0.325 , 0.05 )  Deviation = 0.0340005 Body force = (-0.739278 , -21.7348 , -0) 
 At (0.825 , 0.325 , 0.05 )  Deviation = 0.0259718 Body force = (-0.432508 , -16.6492 , -0) 
 At (0.875 , 0.325 , 0.05 )  Deviation = 0.0199438 Body force = (-0.25579 , -12.8238 , -0) 
 At (0.925 , 0.325 , 0.05 )  Deviation = 0.0154224 Body force = (-0.153423 , -9.94729 , -0) 
 At (0.975 , 0.325 , 0.05 )  Deviation = 0.0120257 Body force = (-0.0935558 , -7.7793 , -0) 
 At (1.025 , 0.325 , 0.05 )  Deviation = 0.00946395 Body force = (-0.0580942 , -6.13829 , -0) 
 At (1.075 , 0.325 , 0.05 )  Deviation = 0.00752123 Body force = (-0.0367727 , -4.88909 , -0) 
 At (1.125 , 0.325 , 0.05 )  Deviation = 0.00603833 Body force = (-0.0237438 , -3.93213 , -0) 
 At (1.175 , 0.325 , 0.05 )  Deviation = 0.00489893 Body force = (-0.0156495 , -3.19445 , -0) 
 At (1.225 , 0.325 , 0.05 )  Deviation = 0.00401845 Body force = (-0.0105399 , -2.62286 , -0) 
 At (1.275 , 0.325 , 0.05 )  Deviation = 0.00333536 Body force = (-0.00726585 , -2.17842 , -0) 
 At (1.325 , 0.325 , 0.05 )  Deviation = 0.00280422 Body force = (-0.00513808 , -1.83226 , -0) 
 At (1.375 , 0.325 , 0.05 )  Deviation = 0.00239018 Body force = (-0.00373362 , -1.56206 , -0) 
 At (1.425 , 0.325 , 0.05 )  Deviation = 0.00206746 Body force = (-0.00279366 , -1.35125 , -0) 
 At (1.475 , 0.325 , 0.05 )  Deviation = 0.00181559 Body force = (-0.00215436 , -1.18659 , -0) 
 At (1.525 , 0.325 , 0.05 )  Deviation = -1.6354 Body force = (0 , 0 , 0) 
 At (1.575 , 0.325 , 0.05 )  Deviation = 0 Body force = (0 , 0 , 0) 
 At (1.625 , 0.325 , 0.05 )  Deviation = 10.047 Body force = (0 , 0 , 0) 
 At (1.675 , 0.325 , 0.05 )  Deviation = -1.58641 Body force = (0 , 0 , 0) 
 At (1.725 , 0.325 , 0.05 )  Deviation = 0 Body force = (0 , 0 , 0) 
 At (1.775 , 0.325 , 0.05 )  Deviation = 10.0414 Body force = (0 , 0 , 0) 
 At (1.825 , 0.325 , 0.05 )  Deviation = -1.52821 Body force = (0 , 0 , 0) 
 At (1.875 , 0.325 , 0.05 )  Deviation = 0 Body force = (0 , 0 , 0) 
 At (1.925 , 0.325 , 0.05 )  Deviation = 9.99997 Body force = (0 , 0 , 0) 
 At (1.975 , 0.325 , 0.05 )  Deviation = -3.58302e-06 Body force = (0 , 0 , 0) 
 At (0.025 , 0.375 , 0.05 )  Deviation = 0 Body force = (0 , 0 , 0) 
 At (0.075 , 0.375 , 0.05 )  Deviation = 9.99982 Body force = (0 , 0 , 0) 
 At (0.125 , 0.375 , 0.05 )  Deviation = -1.63562e-05 Body force = (0 , 0 , 0) 
 At (0.175 , 0.375 , 0.05 )  Deviation = 0 Body force = (0 , 0 , 0) 
 At (0.225 , 0.375 , 0.05 )  Deviation = 9.99949 Body force = (0 , 0 , 0) 
 At (0.275 , 0.375 , 0.05 )  Deviation = -3.08528e-05 Body force = (0 , 0 , 0) 
 At (0.325 , 0.375 , 0.05 )  Deviation = 0 Body force = (0 , 0 , 0) 
 At (0.375 , 0.375 , 0.05 )  Deviation = 9.99907 Body force = (0 , 0 , 0) 
 At (0.425 , 0.375 , 0.05 )  Deviation = -4.36423e-05 Body force = (0 , 0 , 0) 
 At (0.475 , 0.375 , 0.05 )  Deviation = 0 Body force = (0 , 0 , 0) 
 At (0.525 , 0.375 , 0.05 )  Deviation = 0.133102 Body force = (-11.0985 , -82.8904 , -0) 
 At (0.575 , 0.375 , 0.05 )  Deviation = 0.101406 Body force = (-6.48473 , -63.7289 , -0) 
 At (0.625 , 0.375 , 0.05 )  Deviation = 0.0772052 Body force = (-3.7803 , -48.8669 , -0) 
 At (0.675 , 0.375 , 0.05 )  Deviation = 0.0587245 Body force = (-2.19483 , -37.332 , -0) 
 At (0.725 , 0.375 , 0.05 )  Deviation = 0.0446542 Body force = (-1.27217 , -28.4705 , -0) 
 At (0.775 , 0.375 , 0.05 )  Deviation = 0.0339981 Body force = (-0.739176 , -21.7333 , -0) 
 At (0.825 , 0.375 , 0.05 )  Deviation = 0.0259696 Body force = (-0.432433 , -16.6478 , -0) 
 At (0.875 , 0.375 , 0.05 )  Deviation = 0.0199418 Body force = (-0.255737 , -12.8225 , -0) 
 At (0.925 , 0.375 , 0.05 )  Deviation = 0.0154206 Body force = (-0.153387 , -9.94612 , -0) 
 At (0.975 , 0.375 , 0.05 )  Deviation = 0.0120241 Body force = (-0.0935314 , -7.7783 , -0) 
 At (1.025 , 0.375 , 0.05 )  Deviation = 0.00946265 Body force = (-0.0580784 , -6.13746 , -0) 
 At (1.075 , 0.375 , 0.05 )  Deviation = 0.00752022 Body force = (-0.0367628 , -4.88844 , -0) 
 At (1.125 , 0.375 , 0.05 )  Deviation = 0.00603757 Body force = (-0.0237378 , -3.93164 , -0) 
 At (1.175 , 0.375 , 0.05 )  Deviation = 0.0048984 Body force = (-0.0156461 , -3.19411 , -0) 
 At (1.225 , 0.375 , 0.05 )  Deviation = 0.00401812 Body force = (-0.0105381 , -2.62263 , -0) 
 At (1.275 , 0.375 , 0.05 )  Deviation = 0.00333518 Body force = (-0.00726504 , -2.1783 , -0) 
 At (1.325 , 0.375 , 0.05 )  Deviation = 0.00280413 Body force = (-0.00513773 , -1.8322 , -0) 
 At (1.375 , 0.375 , 0.05 )  Deviation = 0.0023901 Body force = (-0.00373337 , -1.56201 , -0) 
 At (1.425 , 0.375 , 0.05 )  Deviation = 0.00206733 Body force = (-0.00279332 , -1.35117 , -0) 
 At (1.475 , 0.375 , 0.05 )  Deviation = 0.00181536 Body force = (-0.00215382 , -1.18644 , -0) 
 At (1.525 , 0.375 , 0.05 )  Deviation = 0 Body force = (0 , 0 , 0) 
 At (1.575 , 0.375 , 0.05 )  Deviation = 9.97254 Body force = (0 , 0 , 0) 
 At (1.625 , 0.375 , 0.05 )  Deviation = -0.732594 Body force = (0 , 0 , 0) 
 At (1.675 , 0.375 , 0.05 )  Deviation = 0 Body force = (0 , 0 , 0) 
 At (1.725 , 0.375 , 0.05 )  Deviation = 9.98926 Body force = (0 , 0 , 0) 
 At (1.775 , 0.375 , 0.05 )  Deviation = -0.976796 Body force = (0 , 0 , 0) 
 At (1.825 , 0.375 , 0.05 )  Deviation = 0 Body force = (0 , 0 , 0) 
 At (1.875 , 0.375 , 0.05 )  Deviation = 9.99492 Body force = (0 , 0 , 0) 
 At (1.925 , 0.375 , 0.05 )  Deviation = -1.16332 Body force = (0 , 0 , 0) 
 At (1.975 , 0.375 , 0.05 )  Deviation = 0 Body force = (0 , 0 , 0) 
 At (0.025 , 0.425 , 0.05 )  Deviation = 9.99072 Body force = (0 , 0 , 0) 
 At (0.075 , 0.425 , 0.05 )  Deviation = -1.30534 Body force = (0 , 0 , 0) 
 At (0.125 , 0.425 , 0.05 )  Deviation = 0 Body force = (0 , 0 , 0) 
 At (0.175 , 0.425 , 0.05 )  Deviation = 9.98427 Body force = (0 , 0 , 0) 
 At (0.225 , 0.425 , 0.05 )  Deviation = -1.41332 Body force = (0 , 0 , 0) 
 At (0.275 , 0.425 , 0.05 )  Deviation = 0 Body force = (0 , 0 , 0) 
 At (0.325 , 0.425 , 0.05 )  Deviation = 9.98096 Body force = (0 , 0 , 0) 
 At (0.375 , 0.425 , 0.05 )  Deviation = -1.4954 Body force = (0 , 0 , 0) 
 At (0.425 , 0.425 , 0.05 )  Deviation = 0 Body force = (0 , 0 , 0) 
 At (0.475 , 0.425 , 0.05 )  Deviation = 9.98263 Body force = (0 , 0 , 0) 
 At (0.525 , 0.425 , 0.05 )  Deviation = 0.133103 Body force = (-11.0986 , -82.8906 , -0) 
 At (0.575 , 0.425 , 0.05 )  Deviation = 0.101405 Body force = (-6.48461 , -63.7283 , -0) 
 At (0.625 , 0.425 , 0.05 )  Deviation = 0.0772035 Body force = (-3.78012 , -48.8657 , -0) 
 At (0.675 , 0.425 , 0.05 )  Deviation = 0.0587223 Body force = (-2.19466 , -37.3305 , -0) 
 At (0.725 , 0.425 , 0.05 )  Deviation = 0.0446518 Body force = (-1.27203 , -28.4689 , -0) 
 At (0.775 , 0.425 , 0.05 )  Deviation = 0.0339957 Body force = (-0.739072 , -21.7318 , -0) 
 At (0.825 , 0.425 , 0.05 )  Deviation = 0.0259673 Body force = (-0.432357 , -16.6463 , -0) 
 At (0.875 , 0.425 , 0.05 )  Deviation = 0.0199397 Body force = (-0.255683 , -12.8212 , -0) 
 At (0.925 , 0.425 , 0.05 )  Deviation = 0.0154187 Body force = (-0.15335 , -9.94492 , -0) 
 At (0.975 , 0.425 , 0.05 )  Deviation = 0.0120224 Body force = (-0.0935059 , -7.77724 , -0) 
 At (1.025 , 0.425 , 0.05 )  Deviation = 0.00946123 Body force = (-0.058061 , -6.13654 , -0) 
 At (1.075 , 0.425 , 0.05 )  Deviation = 0.00751901 Body force = (-0.0367511 , -4.88766 , -0) 
 At (1.125 , 0.425 , 0.05 )  Deviation = 0.00603658 Body force = (-0.0237301 , -3.93099 , -0) 
 At (1.175 , 0.425 , 0.05 )  Deviation = 0.00489762 Body force = (-0.0156411 , -3.1936 , -0) 
 At (1.225 , 0.425 , 0.05 )  Deviation = 0.00401754 Body force = (-0.0105351 , -2.62225 , -0) 
 At (1.275 , 0.425 , 0.05 )  Deviation = 0.00333478 Body force = (-0.00726327 , -2.17803 , -0) 
 At (1.325 , 0.425 , 0.05 )  Deviation = 0.00280385 Body force = (-0.00513671 , -1.83201 , -0) 
 At (1.375 , 0.425 , 0.05 )  Deviation = 0.00238989 Body force = (-0.00373271 , -1.56187 , -0) 
 At (1.425 , 0.425 , 0.05 )  Deviation = 0.00206711 Body force = (-0.00279272 , -1.35102 , -0) 
 At (1.475 , 0.425 , 0.05 )  Deviation = 0.00181505 Body force = (-0.00215308 , -1.18624 , -0) 
 At (1.525 , 0.425 , 0.05 )  Deviation = 10.0395 Body force = (0 , 0 , 0) 
 At (1.575 , 0.425 , 0.05 )  Deviation = -1.72953 Body force = (0 , 0 , 0) 
 At (1.625 , 0.425 , 0.05 )  Deviation = 0 Body force = (0 , 0 , 0) 
 At (1.675 , 0.425 , 0.05 )  Deviation = 10.0435 Body force = (0 , 0 , 0) 
 At (1.725 , 0.425 , 0.05 )  Deviation = -1.73695 Body force = (0 , 0 , 0) 
 At (1.775 , 0.425 , 0.05 )  Deviation = 0 Body force = (0 , 0 , 0) 
 At (1.825 , 0.425 , 0.05 )  Deviation = 10.046 Body force = (0 , 0 , 0) 
 At (1.875 , 0.425 , 0.05 )  Deviation = -1.74263 Body force = (0 , 0 , 0) 
 At (1.925 , 0.425 , 0.05 )  Deviation = 0 Body force = (0 , 0 , 0) 
 At (1.975 , 0.425 , 0.05 )  Deviation = 10.0475 Body force = (0 , 0 , 0) 
 At (0.025 , 0.475 , 0.05 )  Deviation = -1.74697 Body force = (0 , 0 , 0) 
 At (0.075 , 0.475 , 0.05 )  Deviation = 0 Body force = (0 , 0 , 0) 
 At (0.125 , 0.475 , 0.05 )  Deviation = 10.0481 Body force = (0 , 0 , 0) 
 At (0.175 , 0.475 , 0.05 )  Deviation = -1.75028 Body force = (0 , 0 , 0) 
 At (0.225 , 0.475 , 0.05 )  Deviation = 0 Body force = (0 , 0 , 0) 
 At (0.275 , 0.475 , 0.05 )  Deviation = 10.048 Body force = (0 , 0 , 0) 
 At (0.325 , 0.475 , 0.05 )  Deviation = -1.75278 Body force = (0 , 0 , 0) 
 At (0.375 , 0.475 , 0.05 )  Deviation = 0 Body force = (0 , 0 , 0) 
 At (0.425 , 0.475 , 0.05 )  Deviation = 10.0474 Body force = (0 , 0 , 0) 
 At (0.475 , 0.475 , 0.05 )  Deviation = -1.75103 Body force = (0 , 0 , 0) 
 At (0.525 , 0.475 , 0.05 )  Deviation = 0.133103 Body force = (-11.0987 , -82.8909 , -0) 
 At (0.575 , 0.475 , 0.05 )  Deviation = 0.101404 Body force = (-6.48448 , -63.7276 , -0) 
 At (0.625 , 0.475 , 0.05 )  Deviation = 0.0772017 Body force = (-3.77993 , -48.8645 , -0) 
 At (0.675 , 0.475 , 0.05 )  Deviation = 0.05872 Body force = (-2.19448 , -37.329 , -0) 
 At (0.725 , 0.475 , 0.05 )  Deviation = 0.0446493 Body force = (-1.27189 , -28.4673 , -0) 
 At (0.775 , 0.475 , 0.05 )  Deviation = 0.0339933 Body force = (-0.738965 , -21.7302 , -0) 
 At (0.825 , 0.475 , 0.05 )  Deviation = 0.025965 Body force = (-0.432281 , -16.6448 , -0) 
 At (0.875 , 0.475 , 0.05 )  Deviation = 0.0199376 Body force = (-0.25563 , -12.8198 , -0) 
 At (0.925 , 0.475 , 0.05 )  Deviation = 0.0154168 Body force = (-0.153313 , -9.94373 , -0) 
 At (0.975 , 0.475 , 0.05 )  Deviation = 0.0120208 Body force = (-0.09348 , -7.77618 , -0) 
 At (1.025 , 0.475 , 0.05 )  Deviation = 0.00945974 Body force = (-0.0580428 , -6.13559 , -0) 
 At (1.075 , 0.475 , 0.05 )  Deviation = 0.0075177 Body force = (-0.0367383 , -4.88681 , -0) 
 At (1.125 , 0.475 , 0.05 )  Deviation = 0.00603544 Body force = (-0.0237211 , -3.93025 , -0) 
 At (1.175 , 0.475 , 0.05 )  Deviation = 0.00489665 Body force = (-0.015635 , -3.19297 , -0) 
 At (1.225 , 0.475 , 0.05 )  Deviation = 0.00401676 Body force = (-0.010531 , -2.62174 , -0) 
 At (1.275 , 0.475 , 0.05 )  Deviation = 0.00333418 Body force = (-0.00726066 , -2.17764 , -0) 
 At (1.325 , 0.475 , 0.05 )  Deviation = 0.00280341 Body force = (-0.0051351 , -1.83173 , -0) 
 At (1.375 , 0.475 , 0.05 )  Deviation = 0.00238956 Body force = (-0.00373166 , -1.56165 , -0) 
 At (1.425 , 0.475 , 0.05 )  Deviation = 0.00206679 Body force = (-0.00279186 , -1.35082 , -0) 
 At (1.475 , 0.475 , 0.05 )  Deviation = 0.00181466 Body force = (-0.00215216 , -1.18598 , -0) 
 At (1.525 , 0.475 , 0.05 )  Deviation = -1.63539 Body force = (0 , 0 , 0) 
 At (1.575 , 0.475 , 0.05 )  Deviation = 0 Body force = (0 , 0 , 0) 
 At (1.625 , 0.475 , 0.05 )  Deviation = 10.047 Body force = (0 , 0 , 0) 
 At (1.675 , 0.475 , 0.05 )  Deviation = -1.5864 Body force = (0 , 0 , 0) 
 At (1.725 , 0.475 , 0.05 )  Deviation = 0 Body force = (0 , 0 , 0) 
 At (1.775 , 0.475 , 0.05 )  Deviation = 10.0413 Body force = (0 , 0 , 0) 
 At (1.825 , 0.475 , 0.05 )  Deviation = -1.5282 Body force = (0 , 0 , 0) 
 At (1.875 , 0.475 , 0.05 )  Deviation = 0 Body force = (0 , 0 , 0) 
 At (1.925 , 0.475 , 0.05 )  Deviation = 9.99997 Body force = (0 , 0 , 0) 
 At (1.975 , 0.475 , 0.05 )  Deviation = 6.73778e-07 Body force = (0 , 0 , 0) 
 At (0.025 , 0.525 , 0.05 )  Deviation = 0 Body force = (0 , 0 , 0) 
 At (0.075 , 0.525 , 0.05 )  Deviation = 9.99982 Body force = (0 , 0 , 0) 
 At (0.125 , 0.525 , 0.05 )  Deviation = 2.8973e-06 Body force = (0 , 0 , 0) 
 At (0.175 , 0.525 , 0.05 )  Deviation = 0 Body force = (0 , 0 , 0) 
 At (0.225 , 0.525 , 0.05 )  Deviation = 9.99949 Body force = (0 , 0 , 0) 
 At (0.275 , 0.525 , 0.05 )  Deviation = 5.17056e-06 Body force = (0 , 0 , 0) 
 At (0.325 , 0.525 , 0.05 )  Deviation = 0 Body force = (0 , 0 , 0) 
 At (0.375 , 0.525 , 0.05 )  Deviation = 9.99907 Body force = (0 , 0 , 0) 
 At (0.425 , 0.525 , 0.05 )  Deviation = 8.05045e-06 Body force = (0 , 0 , 0) 
 At (0.475 , 0.525 , 0.05 )  Deviation = 0 Body force = (0 , 0 , 0) 
 At (0.525 , 0.525 , 0.05 )  Deviation = 0.133104 Body force = (-11.0987 , -82.891 , -0) 
 At (0.575 , 0.525 , 0.05 )  Deviation = 0.101403 Body force = (-6.48433 , -63.7268 , -0) 
 At (0.625 , 0.525 , 0.05 )  Deviation = 0.0771998 Body force = (-3.77973 , -48.8631 , -0) 
 At (0.675 , 0.525 , 0.05 )  Deviation = 0.0587176 Body force = (-2.1943 , -37.3274 , -0) 
 At (0.725 , 0.525 , 0.05 )  Deviation = 0.0446468 Body force = (-1.27174 , -28.4656 , -0) 
 At (0.775 , 0.525 , 0.05 )  Deviation = 0.0339909 Body force = (-0.738859 , -21.7286 , -0) 
 At (0.825 , 0.525 , 0.05 )  Deviation = 0.0259628 Body force = (-0.432207 , -16.6434 , -0) 
 At (0.875 , 0.525 , 0.05 )  Deviation = 0.0199356 Body force = (-0.255579 , -12.8186 , -0) 
 At (0.925 , 0.525 , 0.05 )  Deviation = 0.015415 Body force = (-0.153277 , -9.94259 , -0) 
 At (0.975 , 0.525 , 0.05 )  Deviation = 0.0120191 Body force = (-0.0934551 , -7.77515 , -0) 
 At (1.025 , 0.525 , 0.05 )  Deviation = 0.00945826 Body force = (-0.0580248 , -6.13464 , -0) 
 At (1.075 , 0.525 , 0.05 )  Deviation = 0.00751634 Body force = (-0.036725 , -4.88594 , -0) 
 At (1.125 , 0.525 , 0.05 )  Deviation = 0.00603419 Body force = (-0.0237113 , -3.92944 , -0) 
 At (1.175 , 0.525 , 0.05 )  Deviation = 0.00489554 Body force = (-0.0156279 , -3.19225 , -0) 
 At (1.225 , 0.525 , 0.05 )  Deviation = 0.00401582 Body force = (-0.010526 , -2.62113 , -0) 
 At (1.275 , 0.525 , 0.05 )  Deviation = 0.00333343 Body force = (-0.00725739 , -2.17715 , -0) 
 At (1.325 , 0.525 , 0.05 )  Deviation = 0.00280284 Body force = (-0.00513299 , -1.83135 , -0) 
 At (1.375 , 0.525 , 0.05 )  Deviation = 0.00238911 Body force = (-0.00373025 , -1.56136 , -0) 
 At (1.425 , 0.525 , 0.05 )  Deviation = 0.00206639 Body force = (-0.00279078 , -1.35055 , -0) 
 At (1.475 , 0.525 , 0.05 )  Deviation = 0.0018142 Body force = (-0.00215107 , -1.18568 , -0) 
 At (1.525 , 0.525 , 0.05 )  Deviation = 0 Body force = (0 , 0 , 0) 
 At (1.575 , 0.525 , 0.05 )  Deviation = 9.97253 Body force = (0 , 0 , 0) 
 At (1.625 , 0.525 , 0.05 )  Deviation = -0.732583 Body force = (0 , 0 , 0) 
 At (1.675 , 0.525 , 0.05 )  Deviation = 0 Body force = (0 , 0 , 0) 
 At (1.725 , 0.525 , 0.05 )  Deviation = 9.98924 Body force = (0 , 0 , 0) 
 At (1.775 , 0.525 , 0.05 )  Deviation = -0.976798 Body force = (0 , 0 , 0) 
 At (1.825 , 0.525 , 0.05 )  Deviation = 0 Body force = (0 , 0 , 0) 
 At (1.875 , 0.525 , 0.05 )  Deviation = 9.9949 Body force = (0 , 0 , 0) 
 At (1.925 , 0.525 , 0.05 )  Deviation = -1.16333 Body force = (0 , 0 , 0) 
 At (1.975 , 0.525 , 0.05 )  Deviation = 0 Body force = (0 , 0 , 0) 
 At (0.025 , 0.575 , 0.05 )  Deviation = 9.9907 Body force = (0 , 0 , 0) 
 At (0.075 , 0.575 , 0.05 )  Deviation = -1.30536 Body force = (0 , 0 , 0) 
 At (0.125 , 0.575 , 0.05 )  Deviation = 0 Body force = (0 , 0 , 0) 
 At (0.175 , 0.575 , 0.05 )  Deviation = 9.98425 Body force = (0 , 0 , 0) 
 At (0.225 , 0.575 , 0.05 )  Deviation = -1.41334 Body force = (0 , 0 , 0) 
 At (0.275 , 0.575 , 0.05 )  Deviation = 0 Body force = (0 , 0 , 0) 
 At (0.325 , 0.575 , 0.05 )  Deviation = 9.98095 Body force = (0 , 0 , 0) 
 At (0.375 , 0.575 , 0.05 )  Deviation = -1.49542 Body force = (0 , 0 , 0) 
 At (0.425 , 0.575 , 0.05 )  Deviation = 0 Body force = (0 , 0 , 0) 
 At (0.475 , 0.575 , 0.05 )  Deviation = 9.98263 Body force = (0 , 0 , 0) 
 At (0.525 , 0.575 , 0.05 )  Deviation = 0.133104 Body force = (-11.0988 , -82.891 , -0) 
 At (0.575 , 0.575 , 0.05 )  Deviation = 0.101402 Body force = (-6.48418 , -63.7259 , -0) 
 At (0.625 , 0.575 , 0.05 )  Deviation = 0.0771979 Body force = (-3.77953 , -48.8618 , -0) 
 At (0.675 , 0.575 , 0.05 )  Deviation = 0.0587153 Body force = (-2.19412 , -37.3258 , -0) 
 At (0.725 , 0.575 , 0.05 )  Deviation = 0.0446445 Body force = (-1.27161 , -28.4641 , -0) 
 At (0.775 , 0.575 , 0.05 )  Deviation = 0.0339887 Body force = (-0.738762 , -21.7272 , -0) 
 At (0.825 , 0.575 , 0.05 )  Deviation = 0.0259608 Body force = (-0.432141 , -16.6421 , -0) 
 At (0.875 , 0.575 , 0.05 )  Deviation = 0.0199338 Body force = (-0.255534 , -12.8174 , -0) 
 At (0.925 , 0.575 , 0.05 )  Deviation = 0.0154135 Body force = (-0.153247 , -9.94159 , -0) 
 At (0.975 , 0.575 , 0.05 )  Deviation = 0.0120177 Body force = (-0.0934329 , -7.77423 , -0) 
 At (1.025 , 0.575 , 0.05 )  Deviation = 0.0094569 Body force = (-0.0580081 , -6.13377 , -0) 
 At (1.075 , 0.575 , 0.05 )  Deviation = 0.00751502 Body force = (-0.0367122 , -4.88509 , -0) 
 At (1.125 , 0.575 , 0.05 )  Deviation = 0.00603293 Body force = (-0.0237014 , -3.92863 , -0) 
 At (1.175 , 0.575 , 0.05 )  Deviation = 0.00489437 Body force = (-0.0156204 , -3.19148 , -0) 
 At (1.225 , 0.575 , 0.05 )  Deviation = 0.00401479 Body force = (-0.0105207 , -2.62046 , -0) 
 At (1.275 , 0.575 , 0.05 )  Deviation = 0.00333258 Body force = (-0.0072537 , -2.17659 , -0) 
 At (1.325 , 0.575 , 0.05 )  Deviation = 0.00280218 Body force = (-0.00513058 , -1.83092 , -0) 
 At (1.375 , 0.575 , 0.05 )  Deviation = 0.0023886 Body force = (-0.00372866 , -1.56102 , -0) 
 At (1.425 , 0.575 , 0.05 )  Deviation = 0.00206594 Body force = (-0.00278956 , -1.35026 , -0) 
 At (1.475 , 0.575 , 0.05 )  Deviation = 0.0018137 Body force = (-0.00214987 , -1.18535 , -0) 
 At (1.525 , 0.575 , 0.05 )  Deviation = 10.0395 Body force = (0 , 0 , 0) 
 At (1.575 , 0.575 , 0.05 )  Deviation = -1.72955 Body force = (0 , 0 , 0) 
 At (1.625 , 0.575 , 0.05 )  Deviation = 0 Body force = (0 , 0 , 0) 
 At (1.675 , 0.575 , 0.05 )  Deviation = 10.0435 Body force = (0 , 0 , 0) 
 At (1.725 , 0.575 , 0.05 )  Deviation = -1.73696 Body force = (0 , 0 , 0) 
 At (1.775 , 0.575 , 0.05 )  Deviation = 0 Body force = (0 , 0 , 0) 
 At (1.825 , 0.575 , 0.05 )  Deviation = 10.046 Body force = (0 , 0 , 0) 
 At (1.875 , 0.575 , 0.05 )  Deviation = -1.74264 Body force = (0 , 0 , 0) 
 At (1.925 , 0.575 , 0.05 )  Deviation = 0 Body force = (0 , 0 , 0) 
 At (1.975 , 0.575 , 0.05 )  Deviation = 10.0475 Body force = (0 , 0 , 0) 
 At (0.025 , 0.625 , 0.05 )  Deviation = -1.74698 Body force = (0 , 0 , 0) 
 At (0.075 , 0.625 , 0.05 )  Deviation = 0 Body force = (0 , 0 , 0) 
 At (0.125 , 0.625 , 0.05 )  Deviation = 10.0481 Body force = (0 , 0 , 0) 
 At (0.175 , 0.625 , 0.05 )  Deviation = -1.75029 Body force = (0 , 0 , 0) 
 At (0.225 , 0.625 , 0.05 )  Deviation = 0 Body force = (0 , 0 , 0) 
 At (0.275 , 0.625 , 0.05 )  Deviation = 10.048 Body force = (0 , 0 , 0) 
 At (0.325 , 0.625 , 0.05 )  Deviation = -1.75279 Body force = (0 , 0 , 0) 
 At (0.375 , 0.625 , 0.05 )  Deviation = 0 Body force = (0 , 0 , 0) 
 At (0.425 , 0.625 , 0.05 )  Deviation = 10.0474 Body force = (0 , 0 , 0) 
 At (0.475 , 0.625 , 0.05 )  Deviation = -1.75103 Body force = (0 , 0 , 0) 
 At (0.525 , 0.625 , 0.05 )  Deviation = 0.133104 Body force = (-11.0988 , -82.8908 , -0) 
 At (0.575 , 0.625 , 0.05 )  Deviation = 0.101401 Body force = (-6.48401 , -63.725 , -0) 
 At (0.625 , 0.625 , 0.05 )  Deviation = 0.0771961 Body force = (-3.77935 , -48.8604 , -0) 
 At (0.675 , 0.625 , 0.05 )  Deviation = 0.0587133 Body force = (-2.19396 , -37.3244 , -0) 
 At (0.725 , 0.625 , 0.05 )  Deviation = 0.0446424 Body force = (-1.27149 , -28.4627 , -0) 
 At (0.775 , 0.625 , 0.05 )  Deviation = 0.0339868 Body force = (-0.738678 , -21.7259 , -0) 
 At (0.825 , 0.625 , 0.05 )  Deviation = 0.0259592 Body force = (-0.432086 , -16.6411 , -0) 
 At (0.875 , 0.625 , 0.05 )  Deviation = 0.0199324 Body force = (-0.255498 , -12.8165 , -0) 
 At (0.925 , 0.625 , 0.05 )  Deviation = 0.0154122 Body force = (-0.153222 , -9.9408 , -0) 
 At (0.975 , 0.625 , 0.05 )  Deviation = 0.0120166 Body force = (-0.0934151 , -7.7735 , -0) 
 At (1.025 , 0.625 , 0.05 )  Deviation = 0.00945577 Body force = (-0.0579944 , -6.13305 , -0) 
 At (1.075 , 0.625 , 0.05 )  Deviation = 0.00751388 Body force = (-0.0367012 , -4.88435 , -0) 
 At (1.125 , 0.625 , 0.05 )  Deviation = 0.00603179 Body force = (-0.0236925 , -3.92789 , -0) 
 At (1.175 , 0.625 , 0.05 )  Deviation = 0.00489328 Body force = (-0.0156135 , -3.19078 , -0) 
 At (1.225 , 0.625 , 0.05 )  Deviation = 0.00401382 Body force = (-0.0105156 , -2.61982 , -0) 
 At (1.275 , 0.625 , 0.05 )  Deviation = 0.00333178 Body force = (-0.00725021 , -2.17607 , -0) 
 At (1.325 , 0.625 , 0.05 )  Deviation = 0.00280156 Body force = (-0.0051283 , -1.83051 , -0) 
 At (1.375 , 0.625 , 0.05 )  Deviation = 0.00238811 Body force = (-0.00372715 , -1.56071 , -0) 
 At (1.425 , 0.625 , 0.05 )  Deviation = 0.0020655 Body force = (-0.00278838 , -1.34997 , -0) 
 At (1.475 , 0.625 , 0.05 )  Deviation = 0.00181319 Body force = (-0.00214868 , -1.18502 , -0) 
 At (1.525 , 0.625 , 0.05 )  Deviation = -1.63538 Body force = (0 , 0 , 0) 
 At (1.575 , 0.625 , 0.05 )  Deviation = 0 Body force = (0 , 0 , 0) 
 At (1.625 , 0.625 , 0.05 )  Deviation = 10.047 Body force = (0 , 0 , 0) 
 At (1.675 , 0.625 , 0.05 )  Deviation = -1.58639 Body force = (0 , 0 , 0) 
 At (1.725 , 0.625 , 0.05 )  Deviation = 0 Body force = (0 , 0 , 0) 
 At (1.775 , 0.625 , 0.05 )  Deviation = 10.0413 Body force = (0 , 0 , 0) 
 At (1.825 , 0.625 , 0.05 )  Deviation = -1.52819 Body force = (0 , 0 , 0) 
 At (1.875 , 0.625 , 0.05 )  Deviation = 0 Body force = (0 , 0 , 0) 
 At (1.925 , 0.625 , 0.05 )  Deviation = 9.99997 Body force = (0 , 0 , 0) 
 At (1.975 , 0.625 , 0.05 )  Deviation = 5.14567e-06 Body force = (0 , 0 , 0) 
 At (0.025 , 0.675 , 0.05 )  Deviation = 0 Body force = (0 , 0 , 0) 
 At (0.075 , 0.675 , 0.05 )  Deviation = 9.99982 Body force = (0 , 0 , 0) 
 At (0.125 , 0.675 , 0.05 )  Deviation = 2.30011e-05 Body force = (0 , 0 , 0) 
 At (0.175 , 0.675 , 0.05 )  Deviation = 0 Body force = (0 , 0 , 0) 
 At (0.225 , 0.675 , 0.05 )  Deviation = 9.9995 Body force = (0 , 0 , 0) 
 At (0.275 , 0.675 , 0.05 )  Deviation = 4.24815e-05 Body force = (0 , 0 , 0) 
 At (0.325 , 0.675 , 0.05 )  Deviation = 0 Body force = (0 , 0 , 0) 
 At (0.375 , 0.675 , 0.05 )  Deviation = 9.99907 Body force = (0 , 0 , 0) 
 At (0.425 , 0.675 , 0.05 )  Deviation = 6.14667e-05 Body force = (0 , 0 , 0) 
 At (0.475 , 0.675 , 0.05 )  Deviation = 0 Body force = (0 , 0 , 0) 
 At (0.525 , 0.675 , 0.05 )  Deviation = 0.133104 Body force = (-11.0987 , -82.8903 , -0) 
 At (0.575 , 0.675 , 0.05 )  Deviation = 0.1014 Body force = (-6.48383 , -63.7239 , -0) 
 At (0.625 , 0.675 , 0.05 )  Deviation = 0.0771943 Body force = (-3.77916 , -48.8591 , -0) 
 At (0.675 , 0.675 , 0.05 )  Deviation = 0.0587113 Body force = (-2.1938 , -37.323 , -0) 
 At (0.725 , 0.675 , 0.05 )  Deviation = 0.0446405 Body force = (-1.27137 , -28.4614 , -0) 
 At (0.775 , 0.675 , 0.05 )  Deviation = 0.033985 Body force = (-0.738603 , -21.7248 , -0) 
 At (0.825 , 0.675 , 0.05 )  Deviation = 0.0259577 Body force = (-0.432038 , -16.6402 , -0) 
 At (0.875 , 0.675 , 0.05 )  Deviation = 0.0199312 Body force = (-0.255469 , -12.8158 , -0) 
 At (0.925 , 0.675 , 0.05 )  Deviation = 0.0154113 Body force = (-0.153204 , -9.94022 , -0) 
 At (0.975 , 0.675 , 0.05 )  Deviation = 0.0120158 Body force = (-0.093403 , -7.773 , -0) 
 At (1.025 , 0.675 , 0.05 )  Deviation = 0.00945502 Body force = (-0.0579853 , -6.13257 , -0) 
 At (1.075 , 0.675 , 0.05 )  Deviation = 0.00751312 Body force = (-0.0366937 , -4.88386 , -0) 
 At (1.125 , 0.675 , 0.05 )  Deviation = 0.00603101 Body force = (-0.0236863 , -3.92738 , -0) 
 At (1.175 , 0.675 , 0.05 )  Deviation = 0.00489252 Body force = (-0.0156086 , -3.19028 , -0) 
 At (1.225 , 0.675 , 0.05 )  Deviation = 0.00401314 Body force = (-0.010512 , -2.61938 , -0) 
 At (1.275 , 0.675 , 0.05 )  Deviation = 0.00333123 Body force = (-0.00724783 , -2.17571 , -0) 
 At (1.325 , 0.675 , 0.05 )  Deviation = 0.00280114 Body force = (-0.00512677 , -1.83024 , -0) 
 At (1.375 , 0.675 , 0.05 )  Deviation = 0.00238777 Body force = (-0.00372607 , -1.56048 , -0) 
 At (1.425 , 0.675 , 0.05 )  Deviation = 0.00206513 Body force = (-0.00278737 , -1.34973 , -0) 
 At (1.475 , 0.675 , 0.05 )  Deviation = 0.00181272 Body force = (-0.00214756 , -1.18472 , -0) 
 At (1.525 , 0.675 , 0.05 )  Deviation = 0 Body force = (0 , 0 , 0) 
 At (1.575 , 0.675 , 0.05 )  Deviation = 9.97251 Body force = (0 , 0 , 0) 
 At (1.625 , 0.675 , 0.05 )  Deviation = -0.732572 Body force = (0 , 0 , 0) 
 At (1.675 , 0.675 , 0.05 )  Deviation = 0 Body force = (0 , 0 , 0) 
 At (1.725 , 0.675 , 0.05 )  Deviation = 9.98922 Body force = (0 , 0 , 0) 
 At (1.775 , 0.675 , 0.05 )  Deviation = -0.976801 Body force = (0 , 0 , 0) 
 At (1.825 , 0.675 , 0.05 )  Deviation = 0 Body force = (0 , 0 , 0) 
 At (1.875 , 0.675 , 0.05 )  Deviation = 9.99487 Body force = (0 , 0 , 0) 
 At (1.925 , 0.675 , 0.05 )  Deviation = -1.16334 Body force = (0 , 0 , 0) 
 At (1.975 , 0.675 , 0.05 )  Deviation = 0 Body force = (0 , 0 , 0) 
 At (0.025 , 0.725 , 0.05 )  Deviation = 9.99067 Body force = (0 , 0 , 0) 
 At (0.075 , 0.725 , 0.05 )  Deviation = -1.30537 Body force = (0 , 0 , 0) 
 At (0.125 , 0.725 , 0.05 )  Deviation = 0 Body force = (0 , 0 , 0) 
 At (0.175 , 0.725 , 0.05 )  Deviation = 9.98423 Body force = (0 , 0 , 0) 
 At (0.225 , 0.725 , 0.05 )  Deviation = -1.41335 Body force = (0 , 0 , 0) 
 At (0.275 , 0.725 , 0.05 )  Deviation = 0 Body force = (0 , 0 , 0) 
 At (0.325 , 0.725 , 0.05 )  Deviation = 9.98094 Body force = (0 , 0 , 0) 
 At (0.375 , 0.725 , 0.05 )  Deviation = -1.49544 Body force = (0 , 0 , 0) 
 At (0.425 , 0.725 , 0.05 )  Deviation = 0 Body force = (0 , 0 , 0) 
 At (0.475 , 0.725 , 0.05 )  Deviation = 9.98262 Body force = (0 , 0 , 0) 
 At (0.525 , 0.725 , 0.05 )  Deviation = 0.133104 Body force = (-11.0985 , -82.8894 , -0) 
 At (0.575 , 0.725 , 0.05 )  Deviation = 0.101398 Body force = (-6.48363 , -63.7228 , -0) 
 At (0.625 , 0.725 , 0.05 )  Deviation = 0.0771926 Body force = (-3.77898 , -48.8579 , -0) 
 At (0.675 , 0.725 , 0.05 )  Deviation = 0.0587093 Body force = (-2.19365 , -37.3217 , -0) 
 At (0.725 , 0.725 , 0.05 )  Deviation = 0.0446384 Body force = (-1.27125 , -28.46 , -0) 
 At (0.775 , 0.725 , 0.05 )  Deviation = 0.033983 Body force = (-0.738513 , -21.7235 , -0) 
 At (0.825 , 0.725 , 0.05 )  Deviation = 0.0259559 Body force = (-0.431978 , -16.639 , -0) 
 At (0.875 , 0.725 , 0.05 )  Deviation = 0.0199297 Body force = (-0.255431 , -12.8149 , -0) 
 At (0.925 , 0.725 , 0.05 )  Deviation = 0.0154102 Body force = (-0.153181 , -9.93951 , -0) 
 At (0.975 , 0.725 , 0.05 )  Deviation = 0.0120149 Body force = (-0.09339 , -7.77246 , -0) 
 At (1.025 , 0.725 , 0.05 )  Deviation = 0.0094544 Body force = (-0.0579778 , -6.13218 , -0) 
 At (1.075 , 0.725 , 0.05 )  Deviation = 0.00751262 Body force = (-0.0366889 , -4.88355 , -0) 
 At (1.125 , 0.725 , 0.05 )  Deviation = 0.00603061 Body force = (-0.0236832 , -3.92713 , -0) 
 At (1.175 , 0.725 , 0.05 )  Deviation = 0.0048922 Body force = (-0.0156066 , -3.19007 , -0) 
 At (1.225 , 0.725 , 0.05 )  Deviation = 0.00401292 Body force = (-0.0105109 , -2.61924 , -0) 
 At (1.275 , 0.725 , 0.05 )  Deviation = 0.0033311 Body force = (-0.00724729 , -2.17563 , -0) 
 At (1.325 , 0.725 , 0.05 )  Deviation = 0.00280106 Body force = (-0.00512648 , -1.83019 , -0) 
 At (1.375 , 0.725 , 0.05 )  Deviation = 0.00238761 Body force = (-0.00372559 , -1.56038 , -0) 
 At (1.425 , 0.725 , 0.05 )  Deviation = 0.00206483 Body force = (-0.00278657 , -1.34954 , -0) 
 At (1.475 , 0.725 , 0.05 )  Deviation = 0.0018122 Body force = (-0.00214634 , -1.18438 , -0) 
 At (1.525 , 0.725 , 0.05 )  Deviation = 10.0395 Body force = (0 , 0 , 0) 
 At (1.575 , 0.725 , 0.05 )  Deviation = -1.72956 Body force = (0 , 0 , 0) 
 At (1.625 , 0.725 , 0.05 )  Deviation = 0 Body force = (0 , 0 , 0) 
 At (1.675 , 0.725 , 0.05 )  Deviation = 10.0435 Body force = (0 , 0 , 0) 
 At (1.725 , 0.725 , 0.05 )  Deviation = -1.73697 Body force = (0 , 0 , 0) 
 At (1.775 , 0.725 , 0.05 )  Deviation = 0 Body force = (0 , 0 , 0) 
 At (1.825 , 0.725 , 0.05 )  Deviation = 10.046 Body force = (0 , 0 , 0) 
 At (1.875 , 0.725 , 0.05 )  Deviation = -1.74265 Body force = (0 , 0 , 0) 
 At (1.925 , 0.725 , 0.05 )  Deviation = 0 Body force = (0 , 0 , 0) 
 At (1.975 , 0.725 , 0.05 )  Deviation = 10.0475 Body force = (0 , 0 , 0) 
 At (0.025 , 0.775 , 0.05 )  Deviation = -1.74699 Body force = (0 , 0 , 0) 
 At (0.075 , 0.775 , 0.05 )  Deviation = 0 Body force = (0 , 0 , 0) 
 At (0.125 , 0.775 , 0.05 )  Deviation = 10.0481 Body force = (0 , 0 , 0) 
 At (0.175 , 0.775 , 0.05 )  Deviation = -1.75029 Body force = (0 , 0 , 0) 
 At (0.225 , 0.775 , 0.05 )  Deviation = 0 Body force = (0 , 0 , 0) 
 At (0.275 , 0.775 , 0.05 )  Deviation = 10.048 Body force = (0 , 0 , 0) 
 At (0.325 , 0.775 , 0.05 )  Deviation = -1.75279 Body force = (0 , 0 , 0) 
 At (0.375 , 0.775 , 0.05 )  Deviation = 0 Body force = (0 , 0 , 0) 
 At (0.425 , 0.775 , 0.05 )  Deviation = 10.0474 Body force = (0 , 0 , 0) 
 At (0.475 , 0.775 , 0.05 )  Deviation = -1.75103 Body force = (0 , 0 , 0) 
 At (0.525 , 0.775 , 0.05 )  Deviation = 0.133104 Body force = (-11.0985 , -82.8892 , -0) 
 At (0.575 , 0.775 , 0.05 )  Deviation = 0.101398 Body force = (-6.4836 , -63.7225 , -0) 
 At (0.625 , 0.775 , 0.05 )  Deviation = 0.0771921 Body force = (-3.77891 , -48.8573 , -0) 
 At (0.675 , 0.775 , 0.05 )  Deviation = 0.0587082 Body force = (-2.19356 , -37.3208 , -0) 
 At (0.725 , 0.775 , 0.05 )  Deviation = 0.0446365 Body force = (-1.27114 , -28.4588 , -0) 
 At (0.775 , 0.775 , 0.05 )  Deviation = 0.0339806 Body force = (-0.738409 , -21.722 , -0) 
 At (0.825 , 0.775 , 0.05 )  Deviation = 0.0259532 Body force = (-0.43189 , -16.6373 , -0) 
 At (0.875 , 0.775 , 0.05 )  Deviation = 0.0199272 Body force = (-0.255366 , -12.8133 , -0) 
 At (0.925 , 0.775 , 0.05 )  Deviation = 0.0154079 Body force = (-0.153138 , -9.9381 , -0) 
 At (0.975 , 0.775 , 0.05 )  Deviation = 0.0120132 Body force = (-0.0933638 , -7.77138 , -0) 
 At (1.025 , 0.775 , 0.05 )  Deviation = 0.00945317 Body force = (-0.0579629 , -6.13139 , -0) 
 At (1.075 , 0.775 , 0.05 )  Deviation = 0.00751188 Body force = (-0.0366818 , -4.88308 , -0) 
 At (1.125 , 0.775 , 0.05 )  Deviation = 0.00603023 Body force = (-0.0236803 , -3.92688 , -0) 
 At (1.175 , 0.775 , 0.05 )  Deviation = 0.00489215 Body force = (-0.0156063 , -3.19004 , -0) 
 At (1.225 , 0.775 , 0.05 )  Deviation = 0.00401308 Body force = (-0.0105117 , -2.61935 , -0) 
 At (1.275 , 0.775 , 0.05 )  Deviation = 0.00333139 Body force = (-0.00724852 , -2.17582 , -0) 
 At (1.325 , 0.775 , 0.05 )  Deviation = 0.00280126 Body force = (-0.00512722 , -1.83032 , -0) 
 At (1.375 , 0.775 , 0.05 )  Deviation = 0.00238759 Body force = (-0.00372553 , -1.56037 , -0) 
 At (1.425 , 0.775 , 0.05 )  Deviation = 0.00206443 Body force = (-0.0027855 , -1.34928 , -0) 
 At (1.475 , 0.775 , 0.05 )  Deviation = 0.0018115 Body force = (-0.00214467 , -1.18392 , -0) 
 At (1.525 , 0.775 , 0.05 )  Deviation = -1.63538 Body force = (0 , 0 , 0) 
 At (1.575 , 0.775 , 0.05 )  Deviation = 0 Body force = (0 , 0 , 0) 
 At (1.625 , 0.775 , 0.05 )  Deviation = 10.047 Body force = (0 , 0 , 0) 
 At (1.675 , 0.775 , 0.05 )  Deviation = -1.58639 Body force = (0 , 0 , 0) 
 At (1.725 , 0.775 , 0.05 )  Deviation = 0 Body force = (0 , 0 , 0) 
 At (1.775 , 0.775 , 0.05 )  Deviation = 10.0413 Body force = (0 , 0 , 0) 
 At (1.825 , 0.775 , 0.05 )  Deviation = -1.52819 Body force = (0 , 0 , 0) 
 At (1.875 , 0.775 , 0.05 )  Deviation = 0 Body force = (0 , 0 , 0) 
 At (1.925 , 0.775 , 0.05 )  Deviation = 9.99997 Body force = (0 , 0 , 0) 
 At (1.975 , 0.775 , 0.05 )  Deviation = 9.53333e-06 Body force = (0 , 0 , 0) 
 At (0.025 , 0.825 , 0.05 )  Deviation = 0 Body force = (0 , 0 , 0) 
 At (0.075 , 0.825 , 0.05 )  Deviation = 9.99982 Body force = (0 , 0 , 0) 
 At (0.125 , 0.825 , 0.05 )  Deviation = 4.27637e-05 Body force = (0 , 0 , 0) 
 At (0.175 , 0.825 , 0.05 )  Deviation = 0 Body force = (0 , 0 , 0) 
 At (0.225 , 0.825 , 0.05 )  Deviation = 9.9995 Body force = (0 , 0 , 0) 
 At (0.275 , 0.825 , 0.05 )  Deviation = 7.9247e-05 Body force = (0 , 0 , 0) 
 At (0.325 , 0.825 , 0.05 )  Deviation = 0 Body force = (0 , 0 , 0) 
 At (0.375 , 0.825 , 0.05 )  Deviation = 9.99907 Body force = (0 , 0 , 0) 
 At (0.425 , 0.825 , 0.05 )  Deviation = 0.000114099 Body force = (0 , 0 , 0) 
 At (0.475 , 0.825 , 0.05 )  Deviation = 0 Body force = (0 , 0 , 0) 
 At (0.525 , 0.825 , 0.05 )  Deviation = 0.133108 Body force = (-11.0991 , -82.8911 , -0) 
 At (0.575 , 0.825 , 0.05 )  Deviation = 0.101402 Body force = (-6.48403 , -63.7244 , -0) 
 At (0.625 , 0.825 , 0.05 )  Deviation = 0.0771951 Body force = (-3.77918 , -48.8589 , -0) 
 At (0.675 , 0.825 , 0.05 )  Deviation = 0.0587101 Body force = (-2.19368 , -37.3218 , -0) 
 At (0.725 , 0.825 , 0.05 )  Deviation = 0.044637 Body force = (-1.27117 , -28.4589 , -0) 
 At (0.775 , 0.825 , 0.05 )  Deviation = 0.0339798 Body force = (-0.738373 , -21.7214 , -0) 
 At (0.825 , 0.825 , 0.05 )  Deviation = 0.0259514 Body force = (-0.431828 , -16.6361 , -0) 
 At (0.875 , 0.825 , 0.05 )  Deviation = 0.0199247 Body force = (-0.255304 , -12.8117 , -0) 
 At (0.925 , 0.825 , 0.05 )  Deviation = 0.0154053 Body force = (-0.153086 , -9.93643 , -0) 
 At (0.975 , 0.825 , 0.05 )  Deviation = 0.0120107 Body force = (-0.0933255 , -7.76981 , -0) 
 At (1.025 , 0.825 , 0.05 )  Deviation = 0.00945112 Body force = (-0.0579379 , -6.13008 , -0) 
 At (1.075 , 0.825 , 0.05 )  Deviation = 0.00751032 Body force = (-0.0366666 , -4.88207 , -0) 
 At (1.125 , 0.825 , 0.05 )  Deviation = 0.00602925 Body force = (-0.0236726 , -3.92625 , -0) 
 At (1.175 , 0.825 , 0.05 )  Deviation = 0.00489162 Body force = (-0.015603 , -3.18971 , -0) 
 At (1.225 , 0.825 , 0.05 )  Deviation = 0.00401298 Body force = (-0.0105112 , -2.61929 , -0) 
 At (1.275 , 0.825 , 0.05 )  Deviation = 0.00333143 Body force = (-0.00724874 , -2.17585 , -0) 
 At (1.325 , 0.825 , 0.05 )  Deviation = 0.00280128 Body force = (-0.00512733 , -1.83034 , -0) 
 At (1.375 , 0.825 , 0.05 )  Deviation = 0.0023873 Body force = (-0.00372465 , -1.56019 , -0) 
 At (1.425 , 0.825 , 0.05 )  Deviation = 0.00206379 Body force = (-0.00278378 , -1.34886 , -0) 
 At (1.475 , 0.825 , 0.05 )  Deviation = 0.00181047 Body force = (-0.00214224 , -1.18325 , -0) 
 At (1.525 , 0.825 , 0.05 )  Deviation = 0 Body force = (0 , 0 , 0) 
 At (1.575 , 0.825 , 0.05 )  Deviation = 9.97248 Body force = (0 , 0 , 0) 
 At (1.625 , 0.825 , 0.05 )  Deviation = -0.732563 Body force = (0 , 0 , 0) 
 At (1.675 , 0.825 , 0.05 )  Deviation = 0 Body force = (0 , 0 , 0) 
 At (1.725 , 0.825 , 0.05 )  Deviation = 9.98919 Body force = (0 , 0 , 0) 
 At (1.775 , 0.825 , 0.05 )  Deviation = -0.976804 Body force = (0 , 0 , 0) 
 At (1.825 , 0.825 , 0.05 )  Deviation = 0 Body force = (0 , 0 , 0) 
 At (1.875 , 0.825 , 0.05 )  Deviation = 9.99484 Body force = (0 , 0 , 0) 
 At (1.925 , 0.825 , 0.05 )  Deviation = -1.16335 Body force = (0 , 0 , 0) 
 At (1.975 , 0.825 , 0.05 )  Deviation = 0 Body force = (0 , 0 , 0) 
 At (0.025 , 0.875 , 0.05 )  Deviation = 9.99065 Body force = (0 , 0 , 0) 
 At (0.075 , 0.875 , 0.05 )  Deviation = -1.30539 Body force = (0 , 0 , 0) 
 At (0.125 , 0.875 , 0.05 )  Deviation = 0 Body force = (0 , 0 , 0) 
 At (0.175 , 0.875 , 0.05 )  Deviation = 9.98421 Body force = (0 , 0 , 0) 
 At (0.225 , 0.875 , 0.05 )  Deviation = -1.41337 Body force = (0 , 0 , 0) 
 At (0.275 , 0.875 , 0.05 )  Deviation = 0 Body force = (0 , 0 , 0) 
 At (0.325 , 0.875 , 0.05 )  Deviation = 9.98093 Body force = (0 , 0 , 0) 
 At (0.375 , 0.875 , 0.05 )  Deviation = -1.49545 Body force = (0 , 0 , 0) 
 At (0.425 , 0.875 , 0.05 )  Deviation = 0 Body force = (0 , 0 , 0) 
 At (0.475 , 0.875 , 0.05 )  Deviation = 9.98262 Body force = (0 , 0 , 0) 
 At (0.525 , 0.875 , 0.05 )  Deviation = 0.133111 Body force = (-11.0996 , -82.8931 , -0) 
 At (0.575 , 0.875 , 0.05 )  Deviation = 0.101406 Body force = (-6.4845 , -63.7267 , -0) 
 At (0.625 , 0.875 , 0.05 )  Deviation = 0.0771995 Body force = (-3.77959 , -48.8615 , -0) 
 At (0.675 , 0.875 , 0.05 )  Deviation = 0.0587146 Body force = (-2.19401 , -37.3244 , -0) 
 At (0.725 , 0.875 , 0.05 )  Deviation = 0.0446419 Body force = (-1.27143 , -28.4618 , -0) 
 At (0.775 , 0.875 , 0.05 )  Deviation = 0.033984 Body force = (-0.738551 , -21.7239 , -0) 
 At (0.825 , 0.875 , 0.05 )  Deviation = 0.0259547 Body force = (-0.431936 , -16.6382 , -0) 
 At (0.875 , 0.875 , 0.05 )  Deviation = 0.0199265 Body force = (-0.255347 , -12.8128 , -0) 
 At (0.925 , 0.875 , 0.05 )  Deviation = 0.0154056 Body force = (-0.153091 , -9.93662 , -0) 
 At (0.975 , 0.875 , 0.05 )  Deviation = 0.0120096 Body force = (-0.093309 , -7.76913 , -0) 
 At (1.025 , 0.875 , 0.05 )  Deviation = 0.0094492 Body force = (-0.0579146 , -6.12887 , -0) 
 At (1.075 , 0.875 , 0.05 )  Deviation = 0.00750803 Body force = (-0.0366444 , -4.88061 , -0) 
 At (1.125 , 0.875 , 0.05 )  Deviation = 0.00602699 Body force = (-0.023655 , -3.9248 , -0) 
 At (1.175 , 0.875 , 0.05 )  Deviation = 0.00488976 Body force = (-0.0155912 , -3.18851 , -0) 
 At (1.225 , 0.875 , 0.05 )  Deviation = 0.00401155 Body force = (-0.0105037 , -2.61836 , -0) 
 At (1.275 , 0.875 , 0.05 )  Deviation = 0.00333045 Body force = (-0.00724447 , -2.17522 , -0) 
 At (1.325 , 0.875 , 0.05 )  Deviation = 0.00280053 Body force = (-0.00512458 , -1.82986 , -0) 
 At (1.375 , 0.875 , 0.05 )  Deviation = 0.00238668 Body force = (-0.00372271 , -1.55978 , -0) 
 At (1.425 , 0.875 , 0.05 )  Deviation = 0.00206324 Body force = (-0.0027823 , -1.3485 , -0) 
 At (1.475 , 0.875 , 0.05 )  Deviation = 0.00181007 Body force = (-0.0021413 , -1.18299 , -0) 
 At (1.525 , 0.875 , 0.05 )  Deviation = 10.0395 Body force = (0 , 0 , 0) 
 At (1.575 , 0.875 , 0.05 )  Deviation = -1.72957 Body force = (0 , 0 , 0) 
 At (1.625 , 0.875 , 0.05 )  Deviation = 0 Body force = (0 , 0 , 0) 
 At (1.675 , 0.875 , 0.05 )  Deviation = 10.0435 Body force = (0 , 0 , 0) 
 At (1.725 , 0.875 , 0.05 )  Deviation = -1.73698 Body force = (0 , 0 , 0) 
 At (1.775 , 0.875 , 0.05 )  Deviation = 0 Body force = (0 , 0 , 0) 
 At (1.825 , 0.875 , 0.05 )  Deviation = 10.046 Body force = (0 , 0 , 0) 
 At (1.875 , 0.875 , 0.05 )  Deviation = -1.74266 Body force = (0 , 0 , 0) 
 At (1.925 , 0.875 , 0.05 )  Deviation = 0 Body force = (0 , 0 , 0) 
 At (1.975 , 0.875 , 0.05 )  Deviation = 10.0475 Body force = (0 , 0 , 0) 
 At (0.025 , 0.925 , 0.05 )  Deviation = -1.74699 Body force = (0 , 0 , 0) 
 At (0.075 , 0.925 , 0.05 )  Deviation = 0 Body force = (0 , 0 , 0) 
 At (0.125 , 0.925 , 0.05 )  Deviation = 10.0481 Body force = (0 , 0 , 0) 
 At (0.175 , 0.925 , 0.05 )  Deviation = -1.75029 Body force = (0 , 0 , 0) 
 At (0.225 , 0.925 , 0.05 )  Deviation = 0 Body force = (0 , 0 , 0) 
 At (0.275 , 0.925 , 0.05 )  Deviation = 10.048 Body force = (0 , 0 , 0) 
 At (0.325 , 0.925 , 0.05 )  Deviation = -1.75279 Body force = (0 , 0 , 0) 
 At (0.375 , 0.925 , 0.05 )  Deviation = 0 Body force = (0 , 0 , 0) 
 At (0.425 , 0.925 , 0.05 )  Deviation = 10.0474 Body force = (0 , 0 , 0) 
 At (0.475 , 0.925 , 0.05 )  Deviation = -1.75102 Body force = (0 , 0 , 0) 
 At (0.525 , 0.925 , 0.05 )  Deviation = 0.133108 Body force = (-11.0991 , -82.8913 , -0) 
 At (0.575 , 0.925 , 0.05 )  Deviation = 0.101404 Body force = (-6.48425 , -63.7255 , -0) 
 At (0.625 , 0.925 , 0.05 )  Deviation = 0.0771996 Body force = (-3.77961 , -48.8617 , -0) 
 At (0.675 , 0.925 , 0.05 )  Deviation = 0.0587191 Body force = (-2.19435 , -37.3273 , -0) 
 At (0.725 , 0.925 , 0.05 )  Deviation = 0.0446506 Body force = (-1.27193 , -28.4673 , -0) 
 At (0.775 , 0.925 , 0.05 )  Deviation = 0.033996 Body force = (-0.739067 , -21.7315 , -0) 
 At (0.825 , 0.925 , 0.05 )  Deviation = 0.025967 Body force = (-0.432344 , -16.646 , -0) 
 At (0.875 , 0.925 , 0.05 )  Deviation = 0.0199371 Body force = (-0.255619 , -12.8196 , -0) 
 At (0.925 , 0.925 , 0.05 )  Deviation = 0.0154128 Body force = (-0.153234 , -9.94124 , -0) 
 At (0.975 , 0.925 , 0.05 )  Deviation = 0.0120132 Body force = (-0.0933649 , -7.77145 , -0) 
 At (1.025 , 0.925 , 0.05 )  Deviation = 0.00944955 Body force = (-0.0579189 , -6.1291 , -0) 
 At (1.075 , 0.925 , 0.05 )  Deviation = 0.00750616 Body force = (-0.0366263 , -4.87941 , -0) 
 At (1.125 , 0.925 , 0.05 )  Deviation = 0.00602398 Body force = (-0.0236315 , -3.92286 , -0) 
 At (1.175 , 0.925 , 0.05 )  Deviation = 0.00488656 Body force = (-0.0155709 , -3.18644 , -0) 
 At (1.225 , 0.925 , 0.05 )  Deviation = 0.00400879 Body force = (-0.0104894 , -2.61658 , -0) 
 At (1.275 , 0.925 , 0.05 )  Deviation = 0.00332839 Body force = (-0.00723557 , -2.17389 , -0) 
 At (1.325 , 0.925 , 0.05 )  Deviation = 0.00279919 Body force = (-0.00511969 , -1.82899 , -0) 
 At (1.375 , 0.925 , 0.05 )  Deviation = 0.00238625 Body force = (-0.00372136 , -1.5595 , -0) 
 At (1.425 , 0.925 , 0.05 )  Deviation = 0.002064 Body force = (-0.00278433 , -1.349 , -0) 
 At (1.475 , 0.925 , 0.05 )  Deviation = 0.00181218 Body force = (-0.0021463 , -1.18437 , -0) 
 At (1.525 , 0.925 , 0.05 )  Deviation = -1.63538 Body force = (0 , 0 , 0) 
 At (1.575 , 0.925 , 0.05 )  Deviation = 0 Body force = (0 , 0 , 0) 
 At (1.625 , 0.925 , 0.05 )  Deviation = 10.047 Body force = (0 , 0 , 0) 
 At (1.675 , 0.925 , 0.05 )  Deviation = -1.58639 Body force = (0 , 0 , 0) 
 At (1.725 , 0.925 , 0.05 )  Deviation = 0 Body force = (0 , 0 , 0) 
 At (1.775 , 0.925 , 0.05 )  Deviation = 10.0413 Body force = (0 , 0 , 0) 
 At (1.825 , 0.925 , 0.05 )  Deviation = -1.52819 Body force = (0 , 0 , 0) 
 At (1.875 , 0.925 , 0.05 )  Deviation = 0 Body force = (0 , 0 , 0) 
 At (1.925 , 0.925 , 0.05 )  Deviation = 9.99997 Body force = (0 , 0 , 0) 
 At (1.975 , 0.925 , 0.05 )  Deviation = 1.38189e-05 Body force = (0 , 0 , 0) 
 At (0.025 , 0.975 , 0.05 )  Deviation = 0 Body force = (0 , 0 , 0) 
 At (0.075 , 0.975 , 0.05 )  Deviation = 9.99982 Body force = (0 , 0 , 0) 
 At (0.125 , 0.975 , 0.05 )  Deviation = 6.1853e-05 Body force = (0 , 0 , 0) 
 At (0.175 , 0.975 , 0.05 )  Deviation = 0 Body force = (0 , 0 , 0) 
 At (0.225 , 0.975 , 0.05 )  Deviation = 9.9995 Body force = (0 , 0 , 0) 
 At (0.275 , 0.975 , 0.05 )  Deviation = 0.000114115 Body force = (0 , 0 , 0) 
 At (0.325 , 0.975 , 0.05 )  Deviation = 0 Body force = (0 , 0 , 0) 
 At (0.375 , 0.975 , 0.05 )  Deviation = 9.99907 Body force = (0 , 0 , 0) 
 At (0.425 , 0.975 , 0.05 )  Deviation = 0.000163278 Body force = (0 , 0 , 0) 
 At (0.475 , 0.975 , 0.05 )  Deviation = 0 Body force = (0 , 0 , 0) 
 At (0.525 , 0.975 , 0.05 )  Deviation = 0.133101 Body force = (-11.0979 , -82.887 , -0) 
 At (0.575 , 0.975 , 0.05 )  Deviation = 0.101398 Body force = (-6.48352 , -63.7221 , -0) 
 At (0.625 , 0.975 , 0.05 )  Deviation = 0.0771977 Body force = (-3.77947 , -48.861 , -0) 
 At (0.675 , 0.975 , 0.05 )  Deviation = 0.0587236 Body force = (-2.19472 , -37.3307 , -0) 
 At (0.725 , 0.975 , 0.05 )  Deviation = 0.0446617 Body force = (-1.27258 , -28.4748 , -0) 
 At (0.775 , 0.975 , 0.05 )  Deviation = 0.0340113 Body force = (-0.739741 , -21.7415 , -0) 
 At (0.825 , 0.975 , 0.05 )  Deviation = 0.0259833 Body force = (-0.432886 , -16.6564 , -0) 
 At (0.875 , 0.975 , 0.05 )  Deviation = 0.0199513 Body force = (-0.255982 , -12.8286 , -0) 
 At (0.925 , 0.975 , 0.05 )  Deviation = 0.0154232 Body force = (-0.15344 , -9.94787 , -0) 
 At (0.975 , 0.975 , 0.05 )  Deviation = 0.0120194 Body force = (-0.0934597 , -7.77537 , -0) 
 At (1.025 , 0.975 , 0.05 )  Deviation = 0.00945199 Body force = (-0.0579485 , -6.13065 , -0) 
 At (1.075 , 0.975 , 0.05 )  Deviation = 0.00750594 Body force = (-0.0366241 , -4.87926 , -0) 
 At (1.125 , 0.975 , 0.05 )  Deviation = 0.00602234 Body force = (-0.0236186 , -3.92179 , -0) 
 At (1.175 , 0.975 , 0.05 )  Deviation = 0.00488448 Body force = (-0.0155576 , -3.18509 , -0) 
 At (1.225 , 0.975 , 0.05 )  Deviation = 0.00400692 Body force = (-0.0104796 , -2.61537 , -0) 
 At (1.275 , 0.975 , 0.05 )  Deviation = 0.00332696 Body force = (-0.00722938 , -2.17296 , -0) 
 At (1.325 , 0.975 , 0.05 )  Deviation = 0.00279849 Body force = (-0.00511717 , -1.82854 , -0) 
 At (1.375 , 0.975 , 0.05 )  Deviation = 0.00238678 Body force = (-0.00372304 , -1.55986 , -0) 
 At (1.425 , 0.975 , 0.05 )  Deviation = 0.00206637 Body force = (-0.00279075 , -1.35055 , -0) 
 At (1.475 , 0.975 , 0.05 )  Deviation = 0.0018163 Body force = (-0.00215607 , -1.18706 , -0) 
 At (1.525 , 0.975 , 0.05 )  Deviation = 0 Body force = (0 , 0 , 0) 
 At (1.575 , 0.975 , 0.05 )  Deviation = 9.97244 Body force = (0 , 0 , 0) 
 At (1.625 , 0.975 , 0.05 )  Deviation = -0.73256 Body force = (0 , 0 , 0) 
 At (1.675 , 0.975 , 0.05 )  Deviation = 0 Body force = (0 , 0 , 0) 
 At (1.725 , 0.975 , 0.05 )  Deviation = 9.98915 Body force = (0 , 0 , 0) 
 At (1.775 , 0.975 , 0.05 )  Deviation = -0.97681 Body force = (0 , 0 , 0) 
 At (1.825 , 0.975 , 0.05 )  Deviation = 0 Body force = (0 , 0 , 0) 
 At (1.875 , 0.975 , 0.05 )  Deviation = 9.99481 Body force = (0 , 0 , 0) 
 At (1.925 , 0.975 , 0.05 )  Deviation = -1.16336 Body force = (0 , 0 , 0) 
 At (1.975 , 0.975 , 0.05 )  Deviation = 0 Body force = (0 , 0 , 0) 
**codeSetValue**
smoothSolver:  Solving for Ux, Initial residual = 0.245161, Final residual = 0.0114413, No Iterations 2
smoothSolver:  Solving for Uy, Initial residual = 0.0098056, Final residual = 0.00033316, No Iterations 2
**codeCorrect**
GAMG:  Solving for p, Initial residual = 0.394467, Final residual = 0.0346475, No Iterations 2
time step continuity errors : sum local = 0.00598038, global = -0.000312123, cumulative = -3.59275e-06
**codeCorrect**
ExecutionTime = 2.44 s  ClockTime = 23 s

Time = 11

**codeSetValue**
smoothSolver:  Solving for Ux, Initial residual = 0.488037, Final residual = 0.025661, No Iterations 2
smoothSolver:  Solving for Uy, Initial residual = 0.0061377, Final residual = 0.000203629, No Iterations 2
**codeCorrect**
GAMG:  Solving for p, Initial residual = 0.123632, Final residual = 0.00618728, No Iterations 2
time step continuity errors : sum local = 0.00291311, global = -0.000625802, cumulative = -0.000629395
**codeCorrect**
ExecutionTime = 2.44 s  ClockTime = 23 s

Time = 12

**codeSetValue**
smoothSolver:  Solving for Ux, Initial residual = 0.487525, Final residual = 0.0292304, No Iterations 2
smoothSolver:  Solving for Uy, Initial residual = 0.00397131, Final residual = 0.000118591, No Iterations 2
**codeCorrect**
GAMG:  Solving for p, Initial residual = 0.108274, Final residual = 0.0103921, No Iterations 2
time step continuity errors : sum local = 0.00443999, global = -0.000418613, cumulative = -0.00104801
**codeCorrect**
ExecutionTime = 2.44 s  ClockTime = 23 s

Time = 13

**codeSetValue**
smoothSolver:  Solving for Ux, Initial residual = 0.25567, Final residual = 0.0122173, No Iterations 2
smoothSolver:  Solving for Uy, Initial residual = 0.00289681, Final residual = 0.000100276, No Iterations 2
**codeCorrect**
GAMG:  Solving for p, Initial residual = 0.374189, Final residual = 0.0359303, No Iterations 2
time step continuity errors : sum local = 0.0044973, global = 5.05892e-05, cumulative = -0.000997419
**codeCorrect**
ExecutionTime = 2.46 s  ClockTime = 23 s

Time = 14

**codeSetValue**
smoothSolver:  Solving for Ux, Initial residual = 0.434457, Final residual = 0.0212698, No Iterations 2
smoothSolver:  Solving for Uy, Initial residual = 0.00182055, Final residual = 6.3534e-05, No Iterations 2
**codeCorrect**
GAMG:  Solving for p, Initial residual = 0.117236, Final residual = 0.00634748, No Iterations 2
time step continuity errors : sum local = 0.00243161, global = -8.06912e-05, cumulative = -0.00107811
**codeCorrect**
ExecutionTime = 2.46 s  ClockTime = 23 s

Time = 15

**codeSetValue**
smoothSolver:  Solving for Ux, Initial residual = 0.432607, Final residual = 0.0249648, No Iterations 2
smoothSolver:  Solving for Uy, Initial residual = 0.00101259, Final residual = 2.54659e-05, No Iterations 2
**codeCorrect**
GAMG:  Solving for p, Initial residual = 0.0890168, Final residual = 0.00836017, No Iterations 2
time step continuity errors : sum local = 0.00324507, global = 0.000614134, cumulative = -0.000463976
**codeCorrect**
ExecutionTime = 2.46 s  ClockTime = 23 s

Time = 16

**codeSetValue**
smoothSolver:  Solving for Ux, Initial residual = 0.271966, Final residual = 0.0137508, No Iterations 2
smoothSolver:  Solving for Uy, Initial residual = 0.000796341, Final residual = 2.98255e-05, No Iterations 2
**codeCorrect**
GAMG:  Solving for p, Initial residual = 0.147914, Final residual = 0.0144105, No Iterations 2
time step continuity errors : sum local = 0.00310849, global = 0.000197299, cumulative = -0.000266677
**codeCorrect**
ExecutionTime = 2.46 s  ClockTime = 23 s

Time = 17

**codeSetValue**
smoothSolver:  Solving for Ux, Initial residual = 0.381379, Final residual = 0.0174955, No Iterations 2
smoothSolver:  Solving for Uy, Initial residual = 0.000629289, Final residual = 3.06198e-05, No Iterations 2
**codeCorrect**
GAMG:  Solving for p, Initial residual = 0.198376, Final residual = 0.0105381, No Iterations 2
time step continuity errors : sum local = 0.00171659, global = 2.39847e-05, cumulative = -0.000242692
**codeCorrect**
ExecutionTime = 2.48 s  ClockTime = 23 s

Time = 18

**codeSetValue**
smoothSolver:  Solving for Ux, Initial residual = 0.380856, Final residual = 0.0215527, No Iterations 2
smoothSolver:  Solving for Uy, Initial residual = 0.000338439, Final residual = 1.35864e-05, No Iterations 2
**codeCorrect**
GAMG:  Solving for p, Initial residual = 0.125784, Final residual = 0.0095784, No Iterations 2
time step continuity errors : sum local = 0.00192788, global = -0.000395008, cumulative = -0.0006377
**codeCorrect**
ExecutionTime = 2.48 s  ClockTime = 23 s

Time = 19

**codeSetValue**
smoothSolver:  Solving for Ux, Initial residual = 0.270159, Final residual = 0.0145615, No Iterations 2
smoothSolver:  Solving for Uy, Initial residual = 0.000331376, Final residual = 1.32856e-05, No Iterations 2
**codeCorrect**
GAMG:  Solving for p, Initial residual = 0.213106, Final residual = 0.0211281, No Iterations 2
time step continuity errors : sum local = 0.00235736, global = -0.000125315, cumulative = -0.000763015
**codeCorrect**
ExecutionTime = 2.48 s  ClockTime = 23 s

Time = 20

 At (0.025 , 0.025 , 0.05 )  Deviation = 6.94157e-310 Body force = (0 , 0 , 0) 
 At (0.075 , 0.025 , 0.05 )  Deviation = 6.94157e-310 Body force = (0 , 0 , 0) 
 At (0.125 , 0.025 , 0.05 )  Deviation = 1.37715e-316 Body force = (0 , 0 , 0) 
 At (0.175 , 0.025 , 0.05 )  Deviation = 1.37715e-316 Body force = (0 , 0 , 0) 
 At (0.225 , 0.025 , 0.05 )  Deviation = -2.41178e-08 Body force = (0 , 0 , 0) 
 At (0.275 , 0.025 , 0.05 )  Deviation = 0 Body force = (0 , 0 , 0) 
 At (0.325 , 0.025 , 0.05 )  Deviation = -3.25564e-08 Body force = (0 , 0 , 0) 
 At (0.375 , 0.025 , 0.05 )  Deviation = 0 Body force = (0 , 0 , 0) 
 At (0.425 , 0.025 , 0.05 )  Deviation = -3.30862e-08 Body force = (0 , 0 , 0) 
 At (0.475 , 0.025 , 0.05 )  Deviation = 0 Body force = (0 , 0 , 0) 
[...]
 At (0.925 , 0.775 , 0.05 )  Deviation = 0.0149628 Body force = (-0.14431 , -9.64389 , -0) 
 At (0.975 , 0.775 , 0.05 )  Deviation = 0.0113842 Body force = (-0.0836347 , -7.34626 , -0) 
 At (1.025 , 0.775 , 0.05 )  Deviation = 0.00866176 Body force = (-0.0484609 , -5.59467 , -0) 
 At (1.075 , 0.775 , 0.05 )  Deviation = 0.00659056 Body force = (-0.0280756 , -4.25991 , -0) 
 At (1.125 , 0.775 , 0.05 )  Deviation = 0.00501472 Body force = (-0.0162635 , -3.24311 , -0) 
 At (1.175 , 0.775 , 0.05 )  Deviation = 0.00381573 Body force = (-0.00942004 , -2.46873 , -0) 
 At (1.225 , 0.775 , 0.05 )  Deviation = 0.00290344 Body force = (-0.00545582 , -1.87909 , -0) 
 At (1.275 , 0.775 , 0.05 )  Deviation = 0.00220928 Body force = (-0.00315967 , -1.43018 , -0) 
 At (1.325 , 0.775 , 0.05 )  Deviation = 0.00168109 Body force = (-0.0018298 , -1.08846 , -0) 
 At (1.375 , 0.775 , 0.05 )  Deviation = 0.00127918 Body force = (-0.00105961 , -0.828351 , -0) 
 At (1.425 , 0.775 , 0.05 )  Deviation = 0.00097336 Body force = (-0.000613586 , -0.630379 , -0) 
 At (1.475 , 0.775 , 0.05 )  Deviation = 0.000740653 Body force = (-0.000355298 , -0.479709 , -0) 
 At (1.525 , 0.775 , 0.05 )  Deviation = 0 Body force = (0 , 0 , 0) 
 At (1.575 , 0.775 , 0.05 )  Deviation = 10 Body force = (0 , 0 , 0) 
 At (1.625 , 0.775 , 0.05 )  Deviation = -3.03375e-08 Body force = (0 , 0 , 0) 
 At (1.675 , 0.775 , 0.05 )  Deviation = 0 Body force = (0 , 0 , 0) 
 At (1.725 , 0.775 , 0.05 )  Deviation = 10 Body force = (0 , 0 , 0) 
 At (1.775 , 0.775 , 0.05 )  Deviation = -3.61939e-08 Body force = (0 , 0 , 0) 
 At (1.825 , 0.775 , 0.05 )  Deviation = 0 Body force = (0 , 0 , 0) 
 At (1.875 , 0.775 , 0.05 )  Deviation = 10 Body force = (0 , 0 , 0) 
 At (1.925 , 0.775 , 0.05 )  Deviation = -4.19221e-08 Body force = (0 , 0 , 0) 
 At (1.975 , 0.775 , 0.05 )  Deviation = 0 Body force = (0 , 0 , 0) 
 At (0.025 , 0.825 , 0.05 )  Deviation = 10 Body force = (0 , 0 , 0) 
 At (0.075 , 0.825 , 0.05 )  Deviation = -4.74745e-08 Body force = (0 , 0 , 0) 
 At (0.125 , 0.825 , 0.05 )  Deviation = 0 Body force = (0 , 0 , 0) 
 At (0.175 , 0.825 , 0.05 )  Deviation = 10.0001 Body force = (0 , 0 , 0) 
 At (0.225 , 0.825 , 0.05 )  Deviation = -5.24497e-08 Body force = (0 , 0 , 0) 
 At (0.275 , 0.825 , 0.05 )  Deviation = 0 Body force = (0 , 0 , 0) 
 At (0.325 , 0.825 , 0.05 )  Deviation = 9.99929 Body force = (0 , 0 , 0) 
 At (0.375 , 0.825 , 0.05 )  Deviation = -5.70369e-08 Body force = (0 , 0 , 0) 
 At (0.425 , 0.825 , 0.05 )  Deviation = 0 Body force = (0 , 0 , 0) 
 At (0.475 , 0.825 , 0.05 )  Deviation = 10.0099 Body force = (0 , 0 , 0) 
 At (0.525 , 0.825 , 0.05 )  Deviation = 0.133086 Body force = (-11.0921 , -82.8523 , -0) 
 At (0.575 , 0.825 , 0.05 )  Deviation = 0.101378 Body force = (-6.47759 , -63.6761 , -0) 
 At (0.625 , 0.825 , 0.05 )  Deviation = 0.0771804 Body force = (-3.77614 , -48.8289 , -0) 
 At (0.675 , 0.825 , 0.05 )  Deviation = 0.0587203 Body force = (-2.19516 , -37.3404 , -0) 
 At (0.725 , 0.825 , 0.05 )  Deviation = 0.044665 Body force = (-1.27451 , -28.516 , -0) 
 At (0.775 , 0.825 , 0.05 )  Deviation = 0.0339774 Body force = (-0.739752 , -21.7635 , -0) 
 At (0.825 , 0.825 , 0.05 )  Deviation = 0.0258498 Body force = (-0.429227 , -16.601 , -0) 
 At (0.875 , 0.825 , 0.05 )  Deviation = 0.0196668 Body force = (-0.248934 , -12.6559 , -0) 
 At (0.925 , 0.825 , 0.05 )  Deviation = 0.0149628 Body force = (-0.14431 , -9.64389 , -0) 
 At (0.975 , 0.825 , 0.05 )  Deviation = 0.0113842 Body force = (-0.0836347 , -7.34626 , -0) 
 At (1.025 , 0.825 , 0.05 )  Deviation = 0.00866176 Body force = (-0.0484609 , -5.59467 , -0) 
 At (1.075 , 0.825 , 0.05 )  Deviation = 0.00659056 Body force = (-0.0280756 , -4.25991 , -0) 
 At (1.125 , 0.825 , 0.05 )  Deviation = 0.00501472 Body force = (-0.0162635 , -3.24311 , -0) 
 At (1.175 , 0.825 , 0.05 )  Deviation = 0.00381573 Body force = (-0.00942004 , -2.46873 , -0) 
 At (1.225 , 0.825 , 0.05 )  Deviation = 0.00290344 Body force = (-0.00545582 , -1.87909 , -0) 
 At (1.275 , 0.825 , 0.05 )  Deviation = 0.00220928 Body force = (-0.00315967 , -1.43018 , -0) 
 At (1.325 , 0.825 , 0.05 )  Deviation = 0.00168109 Body force = (-0.0018298 , -1.08846 , -0) 
 At (1.375 , 0.825 , 0.05 )  Deviation = 0.00127918 Body force = (-0.00105961 , -0.828351 , -0) 
 At (1.425 , 0.825 , 0.05 )  Deviation = 0.00097336 Body force = (-0.000613586 , -0.630379 , -0) 
 At (1.475 , 0.825 , 0.05 )  Deviation = 0.000740653 Body force = (-0.000355298 , -0.479709 , -0) 
 At (1.525 , 0.825 , 0.05 )  Deviation = 10.0001 Body force = (0 , 0 , 0) 
 At (1.575 , 0.825 , 0.05 )  Deviation = -1.49789 Body force = (0 , 0 , 0) 
 At (1.625 , 0.825 , 0.05 )  Deviation = 0 Body force = (0 , 0 , 0) 
 At (1.675 , 0.825 , 0.05 )  Deviation = 10.0001 Body force = (0 , 0 , 0) 
 At (1.725 , 0.825 , 0.05 )  Deviation = -1.56117 Body force = (0 , 0 , 0) 
 At (1.775 , 0.825 , 0.05 )  Deviation = 0 Body force = (0 , 0 , 0) 
 At (1.825 , 0.825 , 0.05 )  Deviation = 10 Body force = (0 , 0 , 0) 
 At (1.875 , 0.825 , 0.05 )  Deviation = -1.60939 Body force = (0 , 0 , 0) 
 At (1.925 , 0.825 , 0.05 )  Deviation = 0 Body force = (0 , 0 , 0) 
 At (1.975 , 0.825 , 0.05 )  Deviation = 10 Body force = (0 , 0 , 0) 
 At (0.025 , 0.875 , 0.05 )  Deviation = -1.64612 Body force = (0 , 0 , 0) 
 At (0.075 , 0.875 , 0.05 )  Deviation = 0 Body force = (0 , 0 , 0) 
 At (0.125 , 0.875 , 0.05 )  Deviation = 10 Body force = (0 , 0 , 0) 
 At (0.175 , 0.875 , 0.05 )  Deviation = -1.67409 Body force = (0 , 0 , 0) 
 At (0.225 , 0.875 , 0.05 )  Deviation = 0 Body force = (0 , 0 , 0) 
 At (0.275 , 0.875 , 0.05 )  Deviation = 10 Body force = (0 , 0 , 0) 
 At (0.325 , 0.875 , 0.05 )  Deviation = -1.69539 Body force = (0 , 0 , 0) 
 At (0.375 , 0.875 , 0.05 )  Deviation = 0 Body force = (0 , 0 , 0) 
 At (0.425 , 0.875 , 0.05 )  Deviation = 10 Body force = (0 , 0 , 0) 
 At (0.475 , 0.875 , 0.05 )  Deviation = -1.71161 Body force = (0 , 0 , 0) 
 At (0.525 , 0.875 , 0.05 )  Deviation = 0.133086 Body force = (-11.0921 , -82.8523 , -0) 
 At (0.575 , 0.875 , 0.05 )  Deviation = 0.101378 Body force = (-6.47759 , -63.6761 , -0) 
 At (0.625 , 0.875 , 0.05 )  Deviation = 0.0771804 Body force = (-3.77614 , -48.8289 , -0) 
 At (0.675 , 0.875 , 0.05 )  Deviation = 0.0587203 Body force = (-2.19516 , -37.3404 , -0) 
 At (0.725 , 0.875 , 0.05 )  Deviation = 0.044665 Body force = (-1.27451 , -28.516 , -0) 
 At (0.775 , 0.875 , 0.05 )  Deviation = 0.0339774 Body force = (-0.739752 , -21.7635 , -0) 
 At (0.825 , 0.875 , 0.05 )  Deviation = 0.0258498 Body force = (-0.429227 , -16.601 , -0) 
 At (0.875 , 0.875 , 0.05 )  Deviation = 0.0196668 Body force = (-0.248934 , -12.6559 , -0) 
 At (0.925 , 0.875 , 0.05 )  Deviation = 0.0149628 Body force = (-0.14431 , -9.64389 , -0) 
 At (0.975 , 0.875 , 0.05 )  Deviation = 0.0113842 Body force = (-0.0836347 , -7.34626 , -0) 
 At (1.025 , 0.875 , 0.05 )  Deviation = 0.00866176 Body force = (-0.0484609 , -5.59467 , -0) 
 At (1.075 , 0.875 , 0.05 )  Deviation = 0.00659056 Body force = (-0.0280756 , -4.25991 , -0) 
 At (1.125 , 0.875 , 0.05 )  Deviation = 0.00501472 Body force = (-0.0162635 , -3.24311 , -0) 
 At (1.175 , 0.875 , 0.05 )  Deviation = 0.00381573 Body force = (-0.00942004 , -2.46873 , -0) 
 At (1.225 , 0.875 , 0.05 )  Deviation = 0.00290344 Body force = (-0.00545582 , -1.87909 , -0) 
 At (1.275 , 0.875 , 0.05 )  Deviation = 0.00220928 Body force = (-0.00315967 , -1.43018 , -0) 
 At (1.325 , 0.875 , 0.05 )  Deviation = 0.00168109 Body force = (-0.0018298 , -1.08846 , -0) 
 At (1.375 , 0.875 , 0.05 )  Deviation = 0.00127918 Body force = (-0.00105961 , -0.828351 , -0) 
 At (1.425 , 0.875 , 0.05 )  Deviation = 0.00097336 Body force = (-0.000613586 , -0.630379 , -0) 
 At (1.475 , 0.875 , 0.05 )  Deviation = 0.000740652 Body force = (-0.000355298 , -0.479709 , -0) 
 At (1.525 , 0.875 , 0.05 )  Deviation = -1.75563 Body force = (0 , 0 , 0) 
 At (1.575 , 0.875 , 0.05 )  Deviation = 0 Body force = (0 , 0 , 0) 
 At (1.625 , 0.875 , 0.05 )  Deviation = 10 Body force = (0 , 0 , 0) 
 At (1.675 , 0.875 , 0.05 )  Deviation = -1.75563 Body force = (0 , 0 , 0) 
 At (1.725 , 0.875 , 0.05 )  Deviation = 0 Body force = (0 , 0 , 0) 
 At (1.775 , 0.875 , 0.05 )  Deviation = 10 Body force = (0 , 0 , 0) 
 At (1.825 , 0.875 , 0.05 )  Deviation = -1.75563 Body force = (0 , 0 , 0) 
 At (1.875 , 0.875 , 0.05 )  Deviation = 0 Body force = (0 , 0 , 0) 
 At (1.925 , 0.875 , 0.05 )  Deviation = 10 Body force = (0 , 0 , 0) 
 At (1.975 , 0.875 , 0.05 )  Deviation = -1.75563 Body force = (0 , 0 , 0) 
 At (0.025 , 0.925 , 0.05 )  Deviation = 0 Body force = (0 , 0 , 0) 
 At (0.075 , 0.925 , 0.05 )  Deviation = 10 Body force = (0 , 0 , 0) 
 At (0.125 , 0.925 , 0.05 )  Deviation = -1.75563 Body force = (0 , 0 , 0) 
 At (0.175 , 0.925 , 0.05 )  Deviation = 0 Body force = (0 , 0 , 0) 
 At (0.225 , 0.925 , 0.05 )  Deviation = 10 Body force = (0 , 0 , 0) 
 At (0.275 , 0.925 , 0.05 )  Deviation = -1.75563 Body force = (0 , 0 , 0) 
 At (0.325 , 0.925 , 0.05 )  Deviation = 0 Body force = (0 , 0 , 0) 
 At (0.375 , 0.925 , 0.05 )  Deviation = 10 Body force = (0 , 0 , 0) 
 At (0.425 , 0.925 , 0.05 )  Deviation = -1.75563 Body force = (0 , 0 , 0) 
 At (0.475 , 0.925 , 0.05 )  Deviation = 0 Body force = (0 , 0 , 0) 
 At (0.525 , 0.925 , 0.05 )  Deviation = 0.133086 Body force = (-11.0921 , -82.8523 , -0) 
 At (0.575 , 0.925 , 0.05 )  Deviation = 0.101378 Body force = (-6.47759 , -63.6761 , -0) 
 At (0.625 , 0.925 , 0.05 )  Deviation = 0.0771804 Body force = (-3.77614 , -48.8289 , -0) 
 At (0.675 , 0.925 , 0.05 )  Deviation = 0.0587203 Body force = (-2.19516 , -37.3404 , -0) 
 At (0.725 , 0.925 , 0.05 )  Deviation = 0.044665 Body force = (-1.27451 , -28.516 , -0) 
 At (0.775 , 0.925 , 0.05 )  Deviation = 0.0339774 Body force = (-0.739752 , -21.7635 , -0) 
 At (0.825 , 0.925 , 0.05 )  Deviation = 0.0258498 Body force = (-0.429227 , -16.601 , -0) 
 At (0.875 , 0.925 , 0.05 )  Deviation = 0.0196668 Body force = (-0.248934 , -12.6559 , -0) 
 At (0.925 , 0.925 , 0.05 )  Deviation = 0.0149628 Body force = (-0.14431 , -9.64389 , -0) 
 At (0.975 , 0.925 , 0.05 )  Deviation = 0.0113842 Body force = (-0.0836347 , -7.34626 , -0) 
 At (1.025 , 0.925 , 0.05 )  Deviation = 0.00866176 Body force = (-0.0484609 , -5.59467 , -0) 
 At (1.075 , 0.925 , 0.05 )  Deviation = 0.00659056 Body force = (-0.0280756 , -4.25991 , -0) 
 At (1.125 , 0.925 , 0.05 )  Deviation = 0.00501472 Body force = (-0.0162634 , -3.24311 , -0) 
 At (1.175 , 0.925 , 0.05 )  Deviation = 0.00381573 Body force = (-0.00942004 , -2.46873 , -0) 
 At (1.225 , 0.925 , 0.05 )  Deviation = 0.00290343 Body force = (-0.00545582 , -1.87909 , -0) 
 At (1.275 , 0.925 , 0.05 )  Deviation = 0.00220928 Body force = (-0.00315967 , -1.43018 , -0) 
 At (1.325 , 0.925 , 0.05 )  Deviation = 0.00168109 Body force = (-0.0018298 , -1.08846 , -0) 
 At (1.375 , 0.925 , 0.05 )  Deviation = 0.00127918 Body force = (-0.00105961 , -0.82835 , -0) 
 At (1.425 , 0.925 , 0.05 )  Deviation = 0.00097336 Body force = (-0.000613585 , -0.630379 , -0) 
 At (1.475 , 0.925 , 0.05 )  Deviation = 0.000740652 Body force = (-0.000355298 , -0.479709 , -0) 
 At (1.525 , 0.925 , 0.05 )  Deviation = 0 Body force = (0 , 0 , 0) 
 At (1.575 , 0.925 , 0.05 )  Deviation = 10 Body force = (0 , 0 , 0) 
 At (1.625 , 0.925 , 0.05 )  Deviation = -1.79431e-08 Body force = (0 , 0 , 0) 
 At (1.675 , 0.925 , 0.05 )  Deviation = 0 Body force = (0 , 0 , 0) 
 At (1.725 , 0.925 , 0.05 )  Deviation = 10 Body force = (0 , 0 , 0) 
 At (1.775 , 0.925 , 0.05 )  Deviation = -2.11838e-08 Body force = (0 , 0 , 0) 
 At (1.825 , 0.925 , 0.05 )  Deviation = 0 Body force = (0 , 0 , 0) 
 At (1.875 , 0.925 , 0.05 )  Deviation = 10 Body force = (0 , 0 , 0) 
 At (1.925 , 0.925 , 0.05 )  Deviation = -2.42807e-08 Body force = (0 , 0 , 0) 
 At (1.975 , 0.925 , 0.05 )  Deviation = 0 Body force = (0 , 0 , 0) 
 At (0.025 , 0.975 , 0.05 )  Deviation = 10 Body force = (0 , 0 , 0) 
 At (0.075 , 0.975 , 0.05 )  Deviation = -2.7181e-08 Body force = (0 , 0 , 0) 
 At (0.125 , 0.975 , 0.05 )  Deviation = 0 Body force = (0 , 0 , 0) 
 At (0.175 , 0.975 , 0.05 )  Deviation = 10.0001 Body force = (0 , 0 , 0) 
 At (0.225 , 0.975 , 0.05 )  Deviation = -2.96836e-08 Body force = (0 , 0 , 0) 
 At (0.275 , 0.975 , 0.05 )  Deviation = 0 Body force = (0 , 0 , 0) 
 At (0.325 , 0.975 , 0.05 )  Deviation = 9.99929 Body force = (0 , 0 , 0) 
 At (0.375 , 0.975 , 0.05 )  Deviation = -3.21168e-08 Body force = (0 , 0 , 0) 
 At (0.425 , 0.975 , 0.05 )  Deviation = 0 Body force = (0 , 0 , 0) 
 At (0.475 , 0.975 , 0.05 )  Deviation = 10.0099 Body force = (0 , 0 , 0) 
 At (0.525 , 0.975 , 0.05 )  Deviation = 0.133086 Body force = (-11.0921 , -82.8523 , -0) 
 At (0.575 , 0.975 , 0.05 )  Deviation = 0.101378 Body force = (-6.47759 , -63.6761 , -0) 
 At (0.625 , 0.975 , 0.05 )  Deviation = 0.0771804 Body force = (-3.77614 , -48.8289 , -0) 
 At (0.675 , 0.975 , 0.05 )  Deviation = 0.0587203 Body force = (-2.19516 , -37.3404 , -0) 
 At (0.725 , 0.975 , 0.05 )  Deviation = 0.044665 Body force = (-1.27451 , -28.516 , -0) 
 At (0.775 , 0.975 , 0.05 )  Deviation = 0.0339774 Body force = (-0.739752 , -21.7635 , -0) 
 At (0.825 , 0.975 , 0.05 )  Deviation = 0.0258498 Body force = (-0.429227 , -16.601 , -0) 
 At (0.875 , 0.975 , 0.05 )  Deviation = 0.0196668 Body force = (-0.248934 , -12.6559 , -0) 
 At (0.925 , 0.975 , 0.05 )  Deviation = 0.0149628 Body force = (-0.14431 , -9.64389 , -0) 
 At (0.975 , 0.975 , 0.05 )  Deviation = 0.0113842 Body force = (-0.0836347 , -7.34626 , -0) 
 At (1.025 , 0.975 , 0.05 )  Deviation = 0.00866176 Body force = (-0.0484609 , -5.59467 , -0) 
 At (1.075 , 0.975 , 0.05 )  Deviation = 0.00659056 Body force = (-0.0280756 , -4.25991 , -0) 
 At (1.125 , 0.975 , 0.05 )  Deviation = 0.00501472 Body force = (-0.0162634 , -3.24311 , -0) 
 At (1.175 , 0.975 , 0.05 )  Deviation = 0.00381572 Body force = (-0.00942003 , -2.46873 , -0) 
 At (1.225 , 0.975 , 0.05 )  Deviation = 0.00290343 Body force = (-0.00545582 , -1.87909 , -0) 
 At (1.275 , 0.975 , 0.05 )  Deviation = 0.00220928 Body force = (-0.00315967 , -1.43018 , -0) 
 At (1.325 , 0.975 , 0.05 )  Deviation = 0.00168109 Body force = (-0.0018298 , -1.08846 , -0) 
 At (1.375 , 0.975 , 0.05 )  Deviation = 0.00127918 Body force = (-0.00105961 , -0.82835 , -0) 
 At (1.425 , 0.975 , 0.05 )  Deviation = 0.000973359 Body force = (-0.000613585 , -0.630378 , -0) 
 At (1.475 , 0.975 , 0.05 )  Deviation = 0.000740652 Body force = (-0.000355298 , -0.479709 , -0) 
 At (1.525 , 0.975 , 0.05 )  Deviation = 10.0001 Body force = (0 , 0 , 0) 
 At (1.575 , 0.975 , 0.05 )  Deviation = -1.49789 Body force = (0 , 0 , 0) 
 At (1.625 , 0.975 , 0.05 )  Deviation = 0 Body force = (0 , 0 , 0) 
 At (1.675 , 0.975 , 0.05 )  Deviation = 10.0001 Body force = (0 , 0 , 0) 
 At (1.725 , 0.975 , 0.05 )  Deviation = -1.56117 Body force = (0 , 0 , 0) 
 At (1.775 , 0.975 , 0.05 )  Deviation = 0 Body force = (0 , 0 , 0) 
 At (1.825 , 0.975 , 0.05 )  Deviation = 10 Body force = (0 , 0 , 0) 
 At (1.875 , 0.975 , 0.05 )  Deviation = -1.60939 Body force = (0 , 0 , 0) 
 At (1.925 , 0.975 , 0.05 )  Deviation = 0 Body force = (0 , 0 , 0) 
 At (1.975 , 0.975 , 0.05 )  Deviation = 10 Body force = (0 , 0 , 0) 
**codeSetValue**
smoothSolver:  Solving for Ux, Initial residual = 0.000527951, Final residual = 2.73184e-05, No Iterations 2
smoothSolver:  Solving for Uy, Initial residual = 6.63341e-08, Final residual = 2.34959e-09, No Iterations 2
**codeCorrect**
GAMG:  Solving for p, Initial residual = 6.0285e-05, Final residual = 4.34658e-06, No Iterations 2
time step continuity errors : sum local = 4.87928e-07, global = -3.62222e-07, cumulative = -0.000856971
**codeCorrect**
ExecutionTime = 18.05 s  ClockTime = 40 s

Time = 71

**codeSetValue**
smoothSolver:  Solving for Ux, Initial residual = 0.000238732, Final residual = 1.3426e-05, No Iterations 2
smoothSolver:  Solving for Uy, Initial residual = 9.55173e-08, Final residual = 4.70636e-09, No Iterations 2
**codeCorrect**
GAMG:  Solving for p, Initial residual = 4.7722e-05, Final residual = 3.91408e-06, No Iterations 2
time step continuity errors : sum local = 4.39493e-07, global = -2.59659e-07, cumulative = -0.000857231
**codeCorrect**
ExecutionTime = 18.05 s  ClockTime = 40 s

Time = 72

**codeSetValue**
smoothSolver:  Solving for Ux, Initial residual = 0.000232611, Final residual = 1.01284e-05, No Iterations 2
smoothSolver:  Solving for Uy, Initial residual = 9.48905e-08, Final residual = 5.13004e-09, No Iterations 2
**codeCorrect**
GAMG:  Solving for p, Initial residual = 2.96638e-05, Final residual = 1.87997e-06, No Iterations 2
time step continuity errors : sum local = 2.11167e-07, global = -8.75635e-08, cumulative = -0.000857318
**codeCorrect**
ExecutionTime = 18.05 s  ClockTime = 40 s

Time = 73

**codeSetValue**
smoothSolver:  Solving for Ux, Initial residual = 0.000295779, Final residual = 1.53465e-05, No Iterations 2
smoothSolver:  Solving for Uy, Initial residual = 4.32257e-08, Final residual = 8.45661e-09, No Iterations 1
**codeCorrect**
GAMG:  Solving for p, Initial residual = 2.521e-05, Final residual = 1.7626e-06, No Iterations 2
time step continuity errors : sum local = 1.98012e-07, global = 6.71534e-08, cumulative = -0.000857251
**codeCorrect**
ExecutionTime = 18.05 s  ClockTime = 40 s

Time = 74

**codeSetValue**
smoothSolver:  Solving for Ux, Initial residual = 0.000178083, Final residual = 9.82857e-06, No Iterations 2
smoothSolver:  Solving for Uy, Initial residual = 5.09237e-08, Final residual = 2.28648e-09, No Iterations 2
**codeCorrect**
GAMG:  Solving for p, Initial residual = 2.50646e-05, Final residual = 1.80413e-06, No Iterations 2
time step continuity errors : sum local = 2.02659e-07, global = 8.47788e-08, cumulative = -0.000857166
**codeCorrect**
ExecutionTime = 18.05 s  ClockTime = 40 s

Time = 75

**codeSetValue**
smoothSolver:  Solving for Ux, Initial residual = 0.000113954, Final residual = 5.3688e-06, No Iterations 2
smoothSolver:  Solving for Uy, Initial residual = 6.0274e-08, Final residual = 3.16603e-09, No Iterations 2
**codeCorrect**
GAMG:  Solving for p, Initial residual = 2.1706e-05, Final residual = 1.32618e-06, No Iterations 2
time step continuity errors : sum local = 1.48942e-07, global = 5.11255e-08, cumulative = -0.000857115
**codeCorrect**
ExecutionTime = 18.07 s  ClockTime = 40 s

Time = 76

**codeSetValue**
smoothSolver:  Solving for Ux, Initial residual = 0.000153267, Final residual = 8.32188e-06, No Iterations 2
smoothSolver:  Solving for Uy, Initial residual = 3.07283e-08, Final residual = 6.764e-09, No Iterations 1
**codeCorrect**
GAMG:  Solving for p, Initial residual = 1.61853e-05, Final residual = 1.01268e-06, No Iterations 2
time step continuity errors : sum local = 1.13721e-07, global = -6.89183e-09, cumulative = -0.000857122
**codeCorrect**
ExecutionTime = 18.07 s  ClockTime = 40 s

Time = 77

**codeSetValue**
smoothSolver:  Solving for Ux, Initial residual = 0.000111968, Final residual = 6.59385e-06, No Iterations 2
smoothSolver:  Solving for Uy, Initial residual = 2.49275e-08, Final residual = 4.63891e-09, No Iterations 1
**codeCorrect**
GAMG:  Solving for p, Initial residual = 1.43264e-05, Final residual = 1.13716e-06, No Iterations 2
time step continuity errors : sum local = 1.27705e-07, global = 9.3044e-09, cumulative = -0.000857113
**codeCorrect**
ExecutionTime = 18.07 s  ClockTime = 40 s

Time = 78

**codeSetValue**
smoothSolver:  Solving for Ux, Initial residual = 6.97451e-05, Final residual = 3.187e-06, No Iterations 2
smoothSolver:  Solving for Uy, Initial residual = 3.51826e-08, Final residual = 7.65891e-09, No Iterations 1
**codeCorrect**
GAMG:  Solving for p, Initial residual = 1.23023e-05, Final residual = 1.00708e-06, No Iterations 2
time step continuity errors : sum local = 1.13109e-07, global = 9.27477e-09, cumulative = -0.000857103
**codeCorrect**
ExecutionTime = 18.08 s  ClockTime = 40 s


SIMPLE solution converged in 78 iterations

End

