/*---------------------------------------------------------------------------*\
| =========                 |                                                 |
| \\      /  F ield         | OpenFOAM: The Open Source CFD Toolbox           |
|  \\    /   O peration     | Version:  5.x                                   |
|   \\  /    A nd           | Web:      www.OpenFOAM.org                      |
|    \\/     M anipulation  |                                                 |
\*---------------------------------------------------------------------------*/
Build  : 5.x-197d9d3bf20a
Exec   : simpleFoam
Date   : Jan 29 2019
Time   : 23:30:26
Host   : "palak"
PID    : 3074
I/O    : uncollated
Case   : /home/palak/OpenFOAM/palak-5.0/run/Z1flatanalytical
nProcs : 1
sigFpe : Enabling floating point exception trapping (FOAM_SIGFPE).
fileModificationChecking : Monitoring run-time modified files using timeStampMaster (fileModificationSkew 10)
allowSystemOperations : Allowing user-supplied system call operations

// * * * * * * * * * * * * * * * * * * * * * * * * * * * * * * * * * * * * * //
Create time

Create mesh for time = 142


SIMPLE: convergence criteria
    field p	 tolerance 0.001
    field U	 tolerance 0.0001
    field "(k|epsilon)"	 tolerance 0.0001

Reading field p

Reading field U

Reading/calculating face flux field phi

Selecting incompressible transport model Newtonian
Selecting turbulence model type laminar
Selecting laminar stress model Stokes
No MRF models present

Creating finite volume options from "constant/fvOptions"

Selecting finite volume options model type vectorCodedSource
    Source: momentumSource
    - selecting all cells
    - selected 800 cell(s) with volume 0.2

Starting time loop

Time = 143

Using dynamicCode for fvOption:: bodyForce at line 25 in "/home/palak/OpenFOAM/palak-5.0/run/Z1flatanalytical/constant/fvOptions.momentumSource.vectorCodedSourceCoeffs"
Creating new library in "dynamicCode/bodyForce/platforms/linux64GccDPInt32Opt/lib/libbodyForce_12e4e81b1bec3553ac795953705c29bb6487db94.so"
Invoking "wmake -s libso /home/palak/OpenFOAM/palak-5.0/run/Z1flatanalytical/dynamicCode/bodyForce"
wmake libso /home/palak/OpenFOAM/palak-5.0/run/Z1flatanalytical/dynamicCode/bodyForce
    wmkdep: codedFvOptionTemplate.C
    Ctoo: codedFvOptionTemplate.C
    ld: /home/palak/OpenFOAM/palak-5.0/run/Z1flatanalytical/dynamicCode/bodyForce/../platforms/linux64GccDPInt32Opt/lib/libbodyForce_12e4e81b1bec3553ac795953705c29bb6487db94.so
Selecting finite volume options model type bodyForce
    Source: bodyForce
    - selecting all cells
    - selected 800 cell(s) with volume 0.2
**codeSetValue**
smoothSolver:  Solving for Ux, Initial residual = 0.58709, Final residual = 0.0251134, No Iterations 2
smoothSolver:  Solving for Uy, Initial residual = 0.0523821, Final residual = 0.00254464, No Iterations 2
**codeCorrect**
GAMG:  Solving for p, Initial residual = 0.379926, Final residual = 0.0201204, No Iterations 2
time step continuity errors : sum local = 0.00216186, global = 0.000449332, cumulative = 0.000449332
**codeCorrect**
ExecutionTime = 0.19 s  ClockTime = 27 s

Time = 144

**codeSetValue**
smoothSolver:  Solving for Ux, Initial residual = 0.145579, Final residual = 0.00536353, No Iterations 2
smoothSolver:  Solving for Uy, Initial residual = 0.0444591, Final residual = 0.00204556, No Iterations 2
**codeCorrect**
GAMG:  Solving for p, Initial residual = 0.470893, Final residual = 0.0176379, No Iterations 2
time step continuity errors : sum local = 0.00116808, global = 0.000215295, cumulative = 0.000664626
**codeCorrect**
ExecutionTime = 0.2 s  ClockTime = 27 s

Time = 145

**codeSetValue**
smoothSolver:  Solving for Ux, Initial residual = 0.468629, Final residual = 0.0157352, No Iterations 2
smoothSolver:  Solving for Uy, Initial residual = 0.0377259, Final residual = 0.00173511, No Iterations 2
**codeCorrect**
GAMG:  Solving for p, Initial residual = 0.581222, Final residual = 0.0231859, No Iterations 2
time step continuity errors : sum local = 0.00135654, global = -0.000321704, cumulative = 0.000342922
**codeCorrect**
ExecutionTime = 0.2 s  ClockTime = 27 s

Time = 146

**codeSetValue**
smoothSolver:  Solving for Ux, Initial residual = 0.317967, Final residual = 0.00942048, No Iterations 2
smoothSolver:  Solving for Uy, Initial residual = 0.03255, Final residual = 0.00152211, No Iterations 2
**codeCorrect**
GAMG:  Solving for p, Initial residual = 0.56515, Final residual = 0.0320897, No Iterations 2
time step continuity errors : sum local = 0.0019157, global = -0.000368979, cumulative = -2.60571e-05
**codeCorrect**
ExecutionTime = 0.2 s  ClockTime = 27 s

Time = 147

**codeSetValue**
smoothSolver:  Solving for Ux, Initial residual = 0.218027, Final residual = 0.00630622, No Iterations 2
smoothSolver:  Solving for Uy, Initial residual = 0.0283872, Final residual = 0.0013558, No Iterations 2
**codeCorrect**
GAMG:  Solving for p, Initial residual = 0.275816, Final residual = 0.0114712, No Iterations 2
time step continuity errors : sum local = 0.00116756, global = -0.000147137, cumulative = -0.000173194
**codeCorrect**
ExecutionTime = 0.22 s  ClockTime = 27 s

Time = 148

**codeSetValue**
smoothSolver:  Solving for Ux, Initial residual = 0.317598, Final residual = 0.0089423, No Iterations 2
smoothSolver:  Solving for Uy, Initial residual = 0.0249745, Final residual = 0.00121513, No Iterations 2
**codeCorrect**
GAMG:  Solving for p, Initial residual = 0.206055, Final residual = 0.00631612, No Iterations 2
time step continuity errors : sum local = 0.000784177, global = 0.000194979, cumulative = 2.1785e-05
**codeCorrect**
ExecutionTime = 0.22 s  ClockTime = 27 s

Time = 149

**codeSetValue**
smoothSolver:  Solving for Ux, Initial residual = 0.348439, Final residual = 0.00753597, No Iterations 2
smoothSolver:  Solving for Uy, Initial residual = 0.0221733, Final residual = 0.00108835, No Iterations 2
**codeCorrect**
GAMG:  Solving for p, Initial residual = 0.201862, Final residual = 0.00886131, No Iterations 2
time step continuity errors : sum local = 0.00105371, global = 0.000226566, cumulative = 0.000248351
**codeCorrect**
ExecutionTime = 0.22 s  ClockTime = 27 s

Time = 150

 At (0.025 , 0.025 , 0.05 )  Deviation = 6.90799e-310 Body force = (0 , 0 , 0) 
 At (0.075 , 0.025 , 0.05 )  Deviation = 6.90799e-310 Body force = (0 , 0 , 0) 
 At (0.125 , 0.025 , 0.05 )  Deviation = 5.79759e-317 Body force = (0 , 0 , 0) 
 At (0.175 , 0.025 , 0.05 )  Deviation = 5.79759e-317 Body force = (0 , 0 , 0) 
 At (0.225 , 0.025 , 0.05 )  Deviation = 0.00034994 Body force = (0 , 0 , 0) 
 At (0.275 , 0.025 , 0.05 )  Deviation = 0.00034994 Body force = (0 , 0 , 0) 
 At (0.325 , 0.025 , 0.05 )  Deviation = 0.000349939 Body force = (0 , 0 , 0) 
 At (0.375 , 0.025 , 0.05 )  Deviation = 0.000349939 Body force = (0 , 0 , 0) 
 At (0.425 , 0.025 , 0.05 )  Deviation = 0.000349937 Body force = (0 , 0 , 0) 
 At (0.475 , 0.025 , 0.05 )  Deviation = 0.000349938 Body force = (0 , 0 , 0) 
 At (0.525 , 0.025 , 0.05 )  Deviation = 0.161976 Body force = (-4.10209 , -25.1034 , -0) 
 At (0.575 , 0.025 , 0.05 )  Deviation = 0.150292 Body force = (-3.53506 , -23.344 , -0) 
 At (0.625 , 0.025 , 0.05 )  Deviation = 0.1394 Body force = (-3.04444 , -21.698 , -0) 
 At (0.675 , 0.025 , 0.05 )  Deviation = 0.129215 Body force = (-2.61995 , -20.1629 , -0) 
 At (0.725 , 0.025 , 0.05 )  Deviation = 0.119642 Body force = (-2.25127 , -18.7268 , -0) 
 At (0.775 , 0.025 , 0.05 )  Deviation = 0.110568 Body force = (-1.92748 , -17.3615 , -0) 
 At (0.825 , 0.025 , 0.05 )  Deviation = 0.101884 Body force = (-1.64013 , -16.0422 , -0) 
 At (0.875 , 0.025 , 0.05 )  Deviation = 0.0935088 Body force = (-1.38391 , -14.7566 , -0) 
 At (0.925 , 0.025 , 0.05 )  Deviation = 0.0853902 Body force = (-1.15564 , -13.5007 , -0) 
 At (0.975 , 0.025 , 0.05 )  Deviation = 0.0775081 Body force = (-0.953321 , -12.275 , -0) 
 At (1.025 , 0.025 , 0.05 )  Deviation = 0.0698697 Body force = (-0.775639 , -11.0832 , -0) 
 At (1.075 , 0.025 , 0.05 )  Deviation = 0.0625045 Body force = (-0.621544 , -9.93105 , -0) 
 At (1.125 , 0.025 , 0.05 )  Deviation = 0.0554577 Body force = (-0.489986 , -8.82625 , -0) 
 At (1.175 , 0.025 , 0.05 )  Deviation = 0.048782 Body force = (-0.379688 , -7.77719 , -0) 
 At (1.225 , 0.025 , 0.05 )  Deviation = 0.0425298 Body force = (-0.289045 , -6.7922 , -0) 
 At (1.275 , 0.025 , 0.05 )  Deviation = 0.0367464 Body force = (-0.216114 , -5.87859 , -0) 
 At (1.325 , 0.025 , 0.05 )  Deviation = 0.0314651 Body force = (-0.158699 , -5.04197 , -0) 
 At (1.375 , 0.025 , 0.05 )  Deviation = 0.0267049 Body force = (-0.114478 , -4.28577 , -0) 
 At (1.425 , 0.025 , 0.05 )  Deviation = 0.0224692 Body force = (-0.0811521 , -3.61109 , -0) 
 At (1.475 , 0.025 , 0.05 )  Deviation = 0.018747 Body force = (-0.0565608 , -3.01671 , -0) 
 At (1.525 , 0.025 , 0.05 )  Deviation = 0.000321473 Body force = (0 , 0 , 0) 
 At (1.575 , 0.025 , 0.05 )  Deviation = 0.000322809 Body force = (0 , 0 , 0) 
 At (1.625 , 0.025 , 0.05 )  Deviation = 0.000318856 Body force = (0 , 0 , 0) 
 At (1.675 , 0.025 , 0.05 )  Deviation = 0.000320136 Body force = (0 , 0 , 0) 
 At (1.725 , 0.025 , 0.05 )  Deviation = 0.00031636 Body force = (0 , 0 , 0) 
 At (1.775 , 0.025 , 0.05 )  Deviation = 0.000317576 Body force = (0 , 0 , 0) 
 At (1.825 , 0.025 , 0.05 )  Deviation = 0.000314001 Body force = (0 , 0 , 0) 
 At (1.875 , 0.025 , 0.05 )  Deviation = 0.000315144 Body force = (0 , 0 , 0) 
 At (1.925 , 0.025 , 0.05 )  Deviation = 0.000311798 Body force = (0 , 0 , 0) 
 At (1.975 , 0.025 , 0.05 )  Deviation = 0.000312858 Body force = (0 , 0 , 0) 
 At (0.025 , 0.075 , 0.05 )  Deviation = 0.000309768 Body force = (0 , 0 , 0) 
 At (0.075 , 0.075 , 0.05 )  Deviation = 0.000310738 Body force = (0 , 0 , 0) 
 At (0.125 , 0.075 , 0.05 )  Deviation = 0.000307924 Body force = (0 , 0 , 0) 
 At (0.175 , 0.075 , 0.05 )  Deviation = 0.000308798 Body force = (0 , 0 , 0) 
 At (0.225 , 0.075 , 0.05 )  Deviation = 0.000306271 Body force = (0 , 0 , 0) 
 At (0.275 , 0.075 , 0.05 )  Deviation = 0.000307049 Body force = (0 , 0 , 0) 
 At (0.325 , 0.075 , 0.05 )  Deviation = 0.000304812 Body force = (0 , 0 , 0) 
 At (0.375 , 0.075 , 0.05 )  Deviation = 0.000305494 Body force = (0 , 0 , 0) 
 At (0.425 , 0.075 , 0.05 )  Deviation = 0.000303541 Body force = (0 , 0 , 0) 
 At (0.475 , 0.075 , 0.05 )  Deviation = 0.00030413 Body force = (0 , 0 , 0) 
 At (0.525 , 0.075 , 0.05 )  Deviation = 0.161979 Body force = (-4.10225 , -25.1039 , -0) 
 At (0.575 , 0.075 , 0.05 )  Deviation = 0.150292 Body force = (-3.53505 , -23.3439 , -0) 
 At (0.625 , 0.075 , 0.05 )  Deviation = 0.139397 Body force = (-3.04432 , -21.6975 , -0) 
 At (0.675 , 0.075 , 0.05 )  Deviation = 0.129212 Body force = (-2.61983 , -20.1625 , -0) 
 At (0.725 , 0.075 , 0.05 )  Deviation = 0.119641 Body force = (-2.25123 , -18.7267 , -0) 
 At (0.775 , 0.075 , 0.05 )  Deviation = 0.110568 Body force = (-1.92751 , -17.3616 , -0) 
 At (0.825 , 0.075 , 0.05 )  Deviation = 0.101886 Body force = (-1.6402 , -16.0426 , -0) 
 At (0.875 , 0.075 , 0.05 )  Deviation = 0.093511 Body force = (-1.38398 , -14.757 , -0) 
 At (0.925 , 0.075 , 0.05 )  Deviation = 0.0853917 Body force = (-1.15568 , -13.5009 , -0) 
 At (0.975 , 0.075 , 0.05 )  Deviation = 0.0775088 Body force = (-0.953338 , -12.2751 , -0) 
 At (1.025 , 0.075 , 0.05 )  Deviation = 0.0698696 Body force = (-0.775638 , -11.0831 , -0) 
 At (1.075 , 0.075 , 0.05 )  Deviation = 0.0625041 Body force = (-0.621536 , -9.93097 , -0) 
 At (1.125 , 0.075 , 0.05 )  Deviation = 0.0554572 Body force = (-0.489977 , -8.82616 , -0) 
 At (1.175 , 0.075 , 0.05 )  Deviation = 0.0487816 Body force = (-0.379682 , -7.77712 , -0) 
 At (1.225 , 0.075 , 0.05 )  Deviation = 0.0425296 Body force = (-0.289042 , -6.79216 , -0) 
 At (1.275 , 0.075 , 0.05 )  Deviation = 0.0367463 Body force = (-0.216113 , -5.87857 , -0) 
 At (1.325 , 0.075 , 0.05 )  Deviation = 0.0314652 Body force = (-0.158699 , -5.04197 , -0) 
 At (1.375 , 0.075 , 0.05 )  Deviation = 0.0267051 Body force = (-0.11448 , -4.2858 , -0) 
 At (1.425 , 0.075 , 0.05 )  Deviation = 0.0224694 Body force = (-0.0811535 , -3.61112 , -0) 
 At (1.475 , 0.075 , 0.05 )  Deviation = 0.0187472 Body force = (-0.0565621 , -3.01674 , -0) 
 At (1.525 , 0.075 , 0.05 )  Deviation = 0.000298087 Body force = (0 , 0 , 0) 
 At (1.575 , 0.075 , 0.05 )  Deviation = 0.000298159 Body force = (0 , 0 , 0) 
 At (1.625 , 0.075 , 0.05 )  Deviation = 0.000297963 Body force = (0 , 0 , 0) 
 At (1.675 , 0.075 , 0.05 )  Deviation = 0.000298015 Body force = (0 , 0 , 0) 
 At (1.725 , 0.075 , 0.05 )  Deviation = 0.000297911 Body force = (0 , 0 , 0) 
 At (1.775 , 0.075 , 0.05 )  Deviation = 0.000349936 Body force = (0 , 0 , 0) 
 At (1.825 , 0.075 , 0.05 )  Deviation = 0.000349929 Body force = (0 , 0 , 0) 
 At (1.875 , 0.075 , 0.05 )  Deviation = 0.000349943 Body force = (0 , 0 , 0) 
 At (1.925 , 0.075 , 0.05 )  Deviation = 0.000349943 Body force = (0 , 0 , 0) 
 At (1.975 , 0.075 , 0.05 )  Deviation = 0.000349942 Body force = (0 , 0 , 0) 
 At (0.025 , 0.125 , 0.05 )  Deviation = 0.000349942 Body force = (0 , 0 , 0) 
 At (0.075 , 0.125 , 0.05 )  Deviation = 0.00034994 Body force = (0 , 0 , 0) 
 At (0.125 , 0.125 , 0.05 )  Deviation = 0.000349941 Body force = (0 , 0 , 0) 
 At (0.175 , 0.125 , 0.05 )  Deviation = 0.000349939 Body force = (0 , 0 , 0) 
 At (0.225 , 0.125 , 0.05 )  Deviation = 0.00034994 Body force = (0 , 0 , 0) 
 At (0.275 , 0.125 , 0.05 )  Deviation = 0.000349939 Body force = (0 , 0 , 0) 
 At (0.325 , 0.125 , 0.05 )  Deviation = 0.000349939 Body force = (0 , 0 , 0) 
 At (0.375 , 0.125 , 0.05 )  Deviation = 0.000349937 Body force = (0 , 0 , 0) 
 At (0.425 , 0.125 , 0.05 )  Deviation = 0.000349938 Body force = (0 , 0 , 0) 
 At (0.475 , 0.125 , 0.05 )  Deviation = 0.000349933 Body force = (0 , 0 , 0) 
 At (0.525 , 0.125 , 0.05 )  Deviation = 0.161978 Body force = (-4.10219 , -25.1037 , -0) 
 At (0.575 , 0.125 , 0.05 )  Deviation = 0.150291 Body force = (-3.53503 , -23.3438 , -0) 
 At (0.625 , 0.125 , 0.05 )  Deviation = 0.139398 Body force = (-3.04436 , -21.6977 , -0) 
 At (0.675 , 0.125 , 0.05 )  Deviation = 0.129214 Body force = (-2.61992 , -20.1628 , -0) 
 At (0.725 , 0.125 , 0.05 )  Deviation = 0.119643 Body force = (-2.25131 , -18.727 , -0) 
 At (0.775 , 0.125 , 0.05 )  Deviation = 0.11057 Body force = (-1.92756 , -17.3619 , -0) 
 At (0.825 , 0.125 , 0.05 )  Deviation = 0.101887 Body force = (-1.64022 , -16.0427 , -0) 
 At (0.875 , 0.125 , 0.05 )  Deviation = 0.093511 Body force = (-1.38398 , -14.757 , -0) 
 At (0.925 , 0.125 , 0.05 )  Deviation = 0.0853915 Body force = (-1.15567 , -13.5009 , -0) 
 At (0.975 , 0.125 , 0.05 )  Deviation = 0.0775085 Body force = (-0.953329 , -12.275 , -0) 
 At (1.025 , 0.125 , 0.05 )  Deviation = 0.0698695 Body force = (-0.775634 , -11.0831 , -0) 
 At (1.075 , 0.125 , 0.05 )  Deviation = 0.0625041 Body force = (-0.621537 , -9.93098 , -0) 
 At (1.125 , 0.125 , 0.05 )  Deviation = 0.0554575 Body force = (-0.489981 , -8.8262 , -0) 
 At (1.175 , 0.125 , 0.05 )  Deviation = 0.0487821 Body force = (-0.379689 , -7.77719 , -0) 
 At (1.225 , 0.125 , 0.05 )  Deviation = 0.0425301 Body force = (-0.289049 , -6.79224 , -0) 
 At (1.275 , 0.125 , 0.05 )  Deviation = 0.0367469 Body force = (-0.21612 , -5.87866 , -0) 
 At (1.325 , 0.125 , 0.05 )  Deviation = 0.0314658 Body force = (-0.158705 , -5.04206 , -0) 
 At (1.375 , 0.125 , 0.05 )  Deviation = 0.0267056 Body force = (-0.114484 , -4.28588 , -0) 
 At (1.425 , 0.125 , 0.05 )  Deviation = 0.0224699 Body force = (-0.081157 , -3.6112 , -0) 
 At (1.475 , 0.125 , 0.05 )  Deviation = 0.0187476 Body force = (-0.0565646 , -3.01681 , -0) 
 At (1.525 , 0.125 , 0.05 )  Deviation = 0.000322809 Body force = (0 , 0 , 0) 
 At (1.575 , 0.125 , 0.05 )  Deviation = 0.000318856 Body force = (0 , 0 , 0) 
 At (1.625 , 0.125 , 0.05 )  Deviation = 0.000320136 Body force = (0 , 0 , 0) 
 At (1.675 , 0.125 , 0.05 )  Deviation = 0.00031636 Body force = (0 , 0 , 0) 
 At (1.725 , 0.125 , 0.05 )  Deviation = 0.000317576 Body force = (0 , 0 , 0) 
 At (1.775 , 0.125 , 0.05 )  Deviation = 0.000314001 Body force = (0 , 0 , 0) 
 At (1.825 , 0.125 , 0.05 )  Deviation = 0.000315144 Body force = (0 , 0 , 0) 
 At (1.875 , 0.125 , 0.05 )  Deviation = 0.000311798 Body force = (0 , 0 , 0) 
 At (1.925 , 0.125 , 0.05 )  Deviation = 0.000312858 Body force = (0 , 0 , 0) 
 At (1.975 , 0.125 , 0.05 )  Deviation = 0.000309768 Body force = (0 , 0 , 0) 
 At (0.025 , 0.175 , 0.05 )  Deviation = 0.000310738 Body force = (0 , 0 , 0) 
 At (0.075 , 0.175 , 0.05 )  Deviation = 0.000307924 Body force = (0 , 0 , 0) 
 At (0.125 , 0.175 , 0.05 )  Deviation = 0.000308798 Body force = (0 , 0 , 0) 
 At (0.175 , 0.175 , 0.05 )  Deviation = 0.000306271 Body force = (0 , 0 , 0) 
 At (0.225 , 0.175 , 0.05 )  Deviation = 0.000307049 Body force = (0 , 0 , 0) 
 At (0.275 , 0.175 , 0.05 )  Deviation = 0.000304812 Body force = (0 , 0 , 0) 
 At (0.325 , 0.175 , 0.05 )  Deviation = 0.000305494 Body force = (0 , 0 , 0) 
 At (0.375 , 0.175 , 0.05 )  Deviation = 0.000303541 Body force = (0 , 0 , 0) 
 At (0.425 , 0.175 , 0.05 )  Deviation = 0.00030413 Body force = (0 , 0 , 0) 
 At (0.475 , 0.175 , 0.05 )  Deviation = 0.000302447 Body force = (0 , 0 , 0) 
 At (0.525 , 0.175 , 0.05 )  Deviation = 0.161978 Body force = (-4.10216 , -25.1036 , -0) 
 At (0.575 , 0.175 , 0.05 )  Deviation = 0.150291 Body force = (-3.53503 , -23.3438 , -0) 
 At (0.625 , 0.175 , 0.05 )  Deviation = 0.139399 Body force = (-3.04439 , -21.6978 , -0) 
 At (0.675 , 0.175 , 0.05 )  Deviation = 0.129215 Body force = (-2.61994 , -20.1629 , -0) 
 At (0.725 , 0.175 , 0.05 )  Deviation = 0.119643 Body force = (-2.25131 , -18.727 , -0) 
 At (0.775 , 0.175 , 0.05 )  Deviation = 0.110569 Body force = (-1.92754 , -17.3618 , -0) 
 At (0.825 , 0.175 , 0.05 )  Deviation = 0.101886 Body force = (-1.64019 , -16.0425 , -0) 
 At (0.875 , 0.175 , 0.05 )  Deviation = 0.0935102 Body force = (-1.38395 , -14.7568 , -0) 
 At (0.925 , 0.175 , 0.05 )  Deviation = 0.0853909 Body force = (-1.15565 , -13.5008 , -0) 
 At (0.975 , 0.175 , 0.05 )  Deviation = 0.0775082 Body force = (-0.953322 , -12.275 , -0) 
 At (1.025 , 0.175 , 0.05 )  Deviation = 0.0698695 Body force = (-0.775633 , -11.0831 , -0) 
 At (1.075 , 0.175 , 0.05 )  Deviation = 0.0625043 Body force = (-0.62154 , -9.931 , -0) 
 At (1.125 , 0.175 , 0.05 )  Deviation = 0.0554577 Body force = (-0.489986 , -8.82624 , -0) 
 At (1.175 , 0.175 , 0.05 )  Deviation = 0.0487823 Body force = (-0.379693 , -7.77723 , -0) 
 At (1.225 , 0.175 , 0.05 )  Deviation = 0.0425304 Body force = (-0.289053 , -6.79228 , -0) 
 At (1.275 , 0.175 , 0.05 )  Deviation = 0.0367472 Body force = (-0.216123 , -5.8787 , -0) 
 At (1.325 , 0.175 , 0.05 )  Deviation = 0.0314661 Body force = (-0.158707 , -5.0421 , -0) 
 At (1.375 , 0.175 , 0.05 )  Deviation = 0.0267059 Body force = (-0.114486 , -4.28592 , -0) 
 At (1.425 , 0.175 , 0.05 )  Deviation = 0.0224701 Body force = (-0.0811586 , -3.61124 , -0) 
 At (1.475 , 0.175 , 0.05 )  Deviation = 0.0187478 Body force = (-0.0565659 , -3.01684 , -0) 
 At (1.525 , 0.175 , 0.05 )  Deviation = 0.000298159 Body force = (0 , 0 , 0) 
 At (1.575 , 0.175 , 0.05 )  Deviation = 0.000297963 Body force = (0 , 0 , 0) 
 At (1.625 , 0.175 , 0.05 )  Deviation = 0.000298015 Body force = (0 , 0 , 0) 
 At (1.675 , 0.175 , 0.05 )  Deviation = 0.000297911 Body force = (0 , 0 , 0) 
 At (1.725 , 0.175 , 0.05 )  Deviation = 0.000349936 Body force = (0 , 0 , 0) 
 At (1.775 , 0.175 , 0.05 )  Deviation = 0.000349929 Body force = (0 , 0 , 0) 
 At (1.825 , 0.175 , 0.05 )  Deviation = 0.000349942 Body force = (0 , 0 , 0) 
 At (1.875 , 0.175 , 0.05 )  Deviation = 0.000349942 Body force = (0 , 0 , 0) 
 At (1.925 , 0.175 , 0.05 )  Deviation = 0.000349941 Body force = (0 , 0 , 0) 
 At (1.975 , 0.175 , 0.05 )  Deviation = 0.000349942 Body force = (0 , 0 , 0) 
 At (0.025 , 0.225 , 0.05 )  Deviation = 0.00034994 Body force = (0 , 0 , 0) 
 At (0.075 , 0.225 , 0.05 )  Deviation = 0.00034994 Body force = (0 , 0 , 0) 
 At (0.125 , 0.225 , 0.05 )  Deviation = 0.000349939 Body force = (0 , 0 , 0) 
 At (0.175 , 0.225 , 0.05 )  Deviation = 0.000349939 Body force = (0 , 0 , 0) 
 At (0.225 , 0.225 , 0.05 )  Deviation = 0.000349938 Body force = (0 , 0 , 0) 
 At (0.275 , 0.225 , 0.05 )  Deviation = 0.000349939 Body force = (0 , 0 , 0) 
 At (0.325 , 0.225 , 0.05 )  Deviation = 0.000349937 Body force = (0 , 0 , 0) 
 At (0.375 , 0.225 , 0.05 )  Deviation = 0.000349938 Body force = (0 , 0 , 0) 
 At (0.425 , 0.225 , 0.05 )  Deviation = 0.000349933 Body force = (0 , 0 , 0) 
 At (0.475 , 0.225 , 0.05 )  Deviation = 0.000349935 Body force = (0 , 0 , 0) 
 At (0.525 , 0.225 , 0.05 )  Deviation = 0.161977 Body force = (-4.10215 , -25.1036 , -0) 
 At (0.575 , 0.225 , 0.05 )  Deviation = 0.150291 Body force = (-3.53503 , -23.3438 , -0) 
 At (0.625 , 0.225 , 0.05 )  Deviation = 0.139399 Body force = (-3.04438 , -21.6977 , -0) 
 At (0.675 , 0.225 , 0.05 )  Deviation = 0.129214 Body force = (-2.61992 , -20.1628 , -0) 
 At (0.725 , 0.225 , 0.05 )  Deviation = 0.119642 Body force = (-2.25128 , -18.727 , -0) 
 At (0.775 , 0.225 , 0.05 )  Deviation = 0.110568 Body force = (-1.92751 , -17.3617 , -0) 
 At (0.825 , 0.225 , 0.05 )  Deviation = 0.101885 Body force = (-1.64016 , -16.0424 , -0) 
 At (0.875 , 0.225 , 0.05 )  Deviation = 0.0935095 Body force = (-1.38393 , -14.7567 , -0) 
 At (0.925 , 0.225 , 0.05 )  Deviation = 0.0853903 Body force = (-1.15564 , -13.5007 , -0) 
 At (0.975 , 0.225 , 0.05 )  Deviation = 0.0775078 Body force = (-0.953311 , -12.2749 , -0) 
 At (1.025 , 0.225 , 0.05 )  Deviation = 0.0698692 Body force = (-0.775626 , -11.0831 , -0) 
 At (1.075 , 0.225 , 0.05 )  Deviation = 0.0625041 Body force = (-0.621535 , -9.93097 , -0) 
 At (1.125 , 0.225 , 0.05 )  Deviation = 0.0554576 Body force = (-0.489983 , -8.82622 , -0) 
 At (1.175 , 0.225 , 0.05 )  Deviation = 0.0487823 Body force = (-0.379692 , -7.77722 , -0) 
 At (1.225 , 0.225 , 0.05 )  Deviation = 0.0425304 Body force = (-0.289053 , -6.79228 , -0) 
 At (1.275 , 0.225 , 0.05 )  Deviation = 0.0367472 Body force = (-0.216124 , -5.87871 , -0) 
 At (1.325 , 0.225 , 0.05 )  Deviation = 0.0314662 Body force = (-0.158709 , -5.04212 , -0) 
 At (1.375 , 0.225 , 0.05 )  Deviation = 0.0267061 Body force = (-0.114488 , -4.28595 , -0) 
 At (1.425 , 0.225 , 0.05 )  Deviation = 0.0224704 Body force = (-0.0811603 , -3.61127 , -0) 
 At (1.475 , 0.225 , 0.05 )  Deviation = 0.0187481 Body force = (-0.0565675 , -3.01688 , -0) 
 At (1.525 , 0.225 , 0.05 )  Deviation = 0.000318856 Body force = (0 , 0 , 0) 
 At (1.575 , 0.225 , 0.05 )  Deviation = 0.000320136 Body force = (0 , 0 , 0) 
 At (1.625 , 0.225 , 0.05 )  Deviation = 0.00031636 Body force = (0 , 0 , 0) 
 At (1.675 , 0.225 , 0.05 )  Deviation = 0.000317576 Body force = (0 , 0 , 0) 
 At (1.725 , 0.225 , 0.05 )  Deviation = 0.000314001 Body force = (0 , 0 , 0) 
 At (1.775 , 0.225 , 0.05 )  Deviation = 0.000315144 Body force = (0 , 0 , 0) 
 At (1.825 , 0.225 , 0.05 )  Deviation = 0.000311798 Body force = (0 , 0 , 0) 
 At (1.875 , 0.225 , 0.05 )  Deviation = 0.000312858 Body force = (0 , 0 , 0) 
 At (1.925 , 0.225 , 0.05 )  Deviation = 0.000309768 Body force = (0 , 0 , 0) 
 At (1.975 , 0.225 , 0.05 )  Deviation = 0.000310738 Body force = (0 , 0 , 0) 
 At (0.025 , 0.275 , 0.05 )  Deviation = 0.000307924 Body force = (0 , 0 , 0) 
 At (0.075 , 0.275 , 0.05 )  Deviation = 0.000308798 Body force = (0 , 0 , 0) 
 At (0.125 , 0.275 , 0.05 )  Deviation = 0.000306272 Body force = (0 , 0 , 0) 
 At (0.175 , 0.275 , 0.05 )  Deviation = 0.000307049 Body force = (0 , 0 , 0) 
 At (0.225 , 0.275 , 0.05 )  Deviation = 0.000304812 Body force = (0 , 0 , 0) 
 At (0.275 , 0.275 , 0.05 )  Deviation = 0.000305494 Body force = (0 , 0 , 0) 
 At (0.325 , 0.275 , 0.05 )  Deviation = 0.000303541 Body force = (0 , 0 , 0) 
 At (0.375 , 0.275 , 0.05 )  Deviation = 0.000304131 Body force = (0 , 0 , 0) 
 At (0.425 , 0.275 , 0.05 )  Deviation = 0.000302447 Body force = (0 , 0 , 0) 
 At (0.475 , 0.275 , 0.05 )  Deviation = 0.000302951 Body force = (0 , 0 , 0) 
 At (0.525 , 0.275 , 0.05 )  Deviation = 0.161977 Body force = (-4.10214 , -25.1036 , -0) 
 At (0.575 , 0.275 , 0.05 )  Deviation = 0.150291 Body force = (-3.53501 , -23.3438 , -0) 
 At (0.625 , 0.275 , 0.05 )  Deviation = 0.139398 Body force = (-3.04436 , -21.6977 , -0) 
 At (0.675 , 0.275 , 0.05 )  Deviation = 0.129214 Body force = (-2.6199 , -20.1627 , -0) 
 At (0.725 , 0.275 , 0.05 )  Deviation = 0.119641 Body force = (-2.25126 , -18.7269 , -0) 
 At (0.775 , 0.275 , 0.05 )  Deviation = 0.110568 Body force = (-1.92749 , -17.3616 , -0) 
 At (0.825 , 0.275 , 0.05 )  Deviation = 0.101885 Body force = (-1.64015 , -16.0423 , -0) 
 At (0.875 , 0.275 , 0.05 )  Deviation = 0.093509 Body force = (-1.38391 , -14.7566 , -0) 
 At (0.925 , 0.275 , 0.05 )  Deviation = 0.0853899 Body force = (-1.15563 , -13.5006 , -0) 
 At (0.975 , 0.275 , 0.05 )  Deviation = 0.0775075 Body force = (-0.953304 , -12.2749 , -0) 
 At (1.025 , 0.275 , 0.05 )  Deviation = 0.069869 Body force = (-0.775622 , -11.083 , -0) 
 At (1.075 , 0.275 , 0.05 )  Deviation = 0.0625039 Body force = (-0.621533 , -9.93094 , -0) 
 At (1.125 , 0.275 , 0.05 )  Deviation = 0.0554575 Body force = (-0.489981 , -8.8262 , -0) 
 At (1.175 , 0.275 , 0.05 )  Deviation = 0.0487822 Body force = (-0.379691 , -7.77721 , -0) 
 At (1.225 , 0.275 , 0.05 )  Deviation = 0.0425304 Body force = (-0.289053 , -6.79228 , -0) 
 At (1.275 , 0.275 , 0.05 )  Deviation = 0.0367473 Body force = (-0.216124 , -5.87872 , -0) 
 At (1.325 , 0.275 , 0.05 )  Deviation = 0.0314663 Body force = (-0.15871 , -5.04214 , -0) 
 At (1.375 , 0.275 , 0.05 )  Deviation = 0.0267062 Body force = (-0.11449 , -4.28597 , -0) 
 At (1.425 , 0.275 , 0.05 )  Deviation = 0.0224706 Body force = (-0.0811618 , -3.61131 , -0) 
 At (1.475 , 0.275 , 0.05 )  Deviation = 0.0187484 Body force = (-0.056569 , -3.01692 , -0) 
 At (1.525 , 0.275 , 0.05 )  Deviation = 0.000297963 Body force = (0 , 0 , 0) 
 At (1.575 , 0.275 , 0.05 )  Deviation = 0.000298015 Body force = (0 , 0 , 0) 
 At (1.625 , 0.275 , 0.05 )  Deviation = 0.000297911 Body force = (0 , 0 , 0) 
 At (1.675 , 0.275 , 0.05 )  Deviation = 0.000349935 Body force = (0 , 0 , 0) 
 At (1.725 , 0.275 , 0.05 )  Deviation = 0.000349929 Body force = (0 , 0 , 0) 
 At (1.775 , 0.275 , 0.05 )  Deviation = 0.000349942 Body force = (0 , 0 , 0) 
 At (1.825 , 0.275 , 0.05 )  Deviation = 0.000349942 Body force = (0 , 0 , 0) 
 At (1.875 , 0.275 , 0.05 )  Deviation = 0.000349941 Body force = (0 , 0 , 0) 
 At (1.925 , 0.275 , 0.05 )  Deviation = 0.000349941 Body force = (0 , 0 , 0) 
 At (1.975 , 0.275 , 0.05 )  Deviation = 0.00034994 Body force = (0 , 0 , 0) 
 At (0.025 , 0.325 , 0.05 )  Deviation = 0.00034994 Body force = (0 , 0 , 0) 
 At (0.075 , 0.325 , 0.05 )  Deviation = 0.000349939 Body force = (0 , 0 , 0) 
 At (0.125 , 0.325 , 0.05 )  Deviation = 0.000349939 Body force = (0 , 0 , 0) 
 At (0.175 , 0.325 , 0.05 )  Deviation = 0.000349938 Body force = (0 , 0 , 0) 
 At (0.225 , 0.325 , 0.05 )  Deviation = 0.000349939 Body force = (0 , 0 , 0) 
 At (0.275 , 0.325 , 0.05 )  Deviation = 0.000349936 Body force = (0 , 0 , 0) 
 At (0.325 , 0.325 , 0.05 )  Deviation = 0.000349938 Body force = (0 , 0 , 0) 
 At (0.375 , 0.325 , 0.05 )  Deviation = 0.000349933 Body force = (0 , 0 , 0) 
 At (0.425 , 0.325 , 0.05 )  Deviation = 0.000349935 Body force = (0 , 0 , 0) 
 At (0.475 , 0.325 , 0.05 )  Deviation = 0.000349928 Body force = (0 , 0 , 0) 
 At (0.525 , 0.325 , 0.05 )  Deviation = 0.161977 Body force = (-4.10212 , -25.1035 , -0) 
 At (0.575 , 0.325 , 0.05 )  Deviation = 0.15029 Body force = (-3.53499 , -23.3437 , -0) 
 At (0.625 , 0.325 , 0.05 )  Deviation = 0.139398 Body force = (-3.04434 , -21.6976 , -0) 
 At (0.675 , 0.325 , 0.05 )  Deviation = 0.129213 Body force = (-2.61988 , -20.1626 , -0) 
 At (0.725 , 0.325 , 0.05 )  Deviation = 0.119641 Body force = (-2.25124 , -18.7268 , -0) 
 At (0.775 , 0.325 , 0.05 )  Deviation = 0.110567 Body force = (-1.92747 , -17.3615 , -0) 
 At (0.825 , 0.325 , 0.05 )  Deviation = 0.101884 Body force = (-1.64013 , -16.0422 , -0) 
 At (0.875 , 0.325 , 0.05 )  Deviation = 0.0935086 Body force = (-1.3839 , -14.7566 , -0) 
 At (0.925 , 0.325 , 0.05 )  Deviation = 0.0853896 Body force = (-1.15562 , -13.5005 , -0) 
 At (0.975 , 0.325 , 0.05 )  Deviation = 0.0775073 Body force = (-0.953298 , -12.2748 , -0) 
 At (1.025 , 0.325 , 0.05 )  Deviation = 0.0698688 Body force = (-0.775618 , -11.083 , -0) 
 At (1.075 , 0.325 , 0.05 )  Deviation = 0.0625038 Body force = (-0.621529 , -9.93092 , -0) 
 At (1.125 , 0.325 , 0.05 )  Deviation = 0.0554573 Body force = (-0.489979 , -8.82618 , -0) 
 At (1.175 , 0.325 , 0.05 )  Deviation = 0.0487821 Body force = (-0.379689 , -7.77719 , -0) 
 At (1.225 , 0.325 , 0.05 )  Deviation = 0.0425304 Body force = (-0.289052 , -6.79227 , -0) 
 At (1.275 , 0.325 , 0.05 )  Deviation = 0.0367473 Body force = (-0.216124 , -5.87872 , -0) 
 At (1.325 , 0.325 , 0.05 )  Deviation = 0.0314664 Body force = (-0.15871 , -5.04215 , -0) 
 At (1.375 , 0.325 , 0.05 )  Deviation = 0.0267063 Body force = (-0.11449 , -4.28599 , -0) 
 At (1.425 , 0.325 , 0.05 )  Deviation = 0.0224707 Body force = (-0.0811629 , -3.61133 , -0) 
 At (1.475 , 0.325 , 0.05 )  Deviation = 0.0187485 Body force = (-0.0565701 , -3.01695 , -0) 
 At (1.525 , 0.325 , 0.05 )  Deviation = 0.000320136 Body force = (0 , 0 , 0) 
 At (1.575 , 0.325 , 0.05 )  Deviation = 0.00031636 Body force = (0 , 0 , 0) 
 At (1.625 , 0.325 , 0.05 )  Deviation = 0.000317576 Body force = (0 , 0 , 0) 
 At (1.675 , 0.325 , 0.05 )  Deviation = 0.000314001 Body force = (0 , 0 , 0) 
 At (1.725 , 0.325 , 0.05 )  Deviation = 0.000315144 Body force = (0 , 0 , 0) 
 At (1.775 , 0.325 , 0.05 )  Deviation = 0.000311798 Body force = (0 , 0 , 0) 
 At (1.825 , 0.325 , 0.05 )  Deviation = 0.000312858 Body force = (0 , 0 , 0) 
 At (1.875 , 0.325 , 0.05 )  Deviation = 0.000309768 Body force = (0 , 0 , 0) 
 At (1.925 , 0.325 , 0.05 )  Deviation = 0.000310738 Body force = (0 , 0 , 0) 
 At (1.975 , 0.325 , 0.05 )  Deviation = 0.000307924 Body force = (0 , 0 , 0) 
 At (0.025 , 0.375 , 0.05 )  Deviation = 0.000308798 Body force = (0 , 0 , 0) 
 At (0.075 , 0.375 , 0.05 )  Deviation = 0.000306272 Body force = (0 , 0 , 0) 
 At (0.125 , 0.375 , 0.05 )  Deviation = 0.000307049 Body force = (0 , 0 , 0) 
 At (0.175 , 0.375 , 0.05 )  Deviation = 0.000304812 Body force = (0 , 0 , 0) 
 At (0.225 , 0.375 , 0.05 )  Deviation = 0.000305494 Body force = (0 , 0 , 0) 
 At (0.275 , 0.375 , 0.05 )  Deviation = 0.000303541 Body force = (0 , 0 , 0) 
 At (0.325 , 0.375 , 0.05 )  Deviation = 0.000304131 Body force = (0 , 0 , 0) 
 At (0.375 , 0.375 , 0.05 )  Deviation = 0.000302447 Body force = (0 , 0 , 0) 
 At (0.425 , 0.375 , 0.05 )  Deviation = 0.000302951 Body force = (0 , 0 , 0) 
 At (0.475 , 0.375 , 0.05 )  Deviation = 0.000301518 Body force = (0 , 0 , 0) 
 At (0.525 , 0.375 , 0.05 )  Deviation = 0.161976 Body force = (-4.10211 , -25.1035 , -0) 
 At (0.575 , 0.375 , 0.05 )  Deviation = 0.15029 Body force = (-3.53497 , -23.3437 , -0) 
 At (0.625 , 0.375 , 0.05 )  Deviation = 0.139397 Body force = (-3.04432 , -21.6975 , -0) 
 At (0.675 , 0.375 , 0.05 )  Deviation = 0.129213 Body force = (-2.61986 , -20.1626 , -0) 
 At (0.725 , 0.375 , 0.05 )  Deviation = 0.11964 Body force = (-2.25122 , -18.7267 , -0) 
 At (0.775 , 0.375 , 0.05 )  Deviation = 0.110567 Body force = (-1.92746 , -17.3614 , -0) 
 At (0.825 , 0.375 , 0.05 )  Deviation = 0.101884 Body force = (-1.64012 , -16.0422 , -0) 
 At (0.875 , 0.375 , 0.05 )  Deviation = 0.0935083 Body force = (-1.38389 , -14.7565 , -0) 
 At (0.925 , 0.375 , 0.05 )  Deviation = 0.0853894 Body force = (-1.15561 , -13.5005 , -0) 
 At (0.975 , 0.375 , 0.05 )  Deviation = 0.077507 Body force = (-0.953293 , -12.2748 , -0) 
 At (1.025 , 0.375 , 0.05 )  Deviation = 0.0698685 Body force = (-0.775613 , -11.083 , -0) 
 At (1.075 , 0.375 , 0.05 )  Deviation = 0.0625036 Body force = (-0.621525 , -9.93089 , -0) 
 At (1.125 , 0.375 , 0.05 )  Deviation = 0.0554572 Body force = (-0.489976 , -8.82615 , -0) 
 At (1.175 , 0.375 , 0.05 )  Deviation = 0.048782 Body force = (-0.379687 , -7.77717 , -0) 
 At (1.225 , 0.375 , 0.05 )  Deviation = 0.0425303 Body force = (-0.28905 , -6.79225 , -0) 
 At (1.275 , 0.375 , 0.05 )  Deviation = 0.0367473 Body force = (-0.216124 , -5.87871 , -0) 
 At (1.325 , 0.375 , 0.05 )  Deviation = 0.0314664 Body force = (-0.15871 , -5.04215 , -0) 
 At (1.375 , 0.375 , 0.05 )  Deviation = 0.0267064 Body force = (-0.114491 , -4.286 , -0) 
 At (1.425 , 0.375 , 0.05 )  Deviation = 0.0224708 Body force = (-0.0811636 , -3.61135 , -0) 
 At (1.475 , 0.375 , 0.05 )  Deviation = 0.0187487 Body force = (-0.056571 , -3.01698 , -0) 
 At (1.525 , 0.375 , 0.05 )  Deviation = 0.000298015 Body force = (0 , 0 , 0) 
 At (1.575 , 0.375 , 0.05 )  Deviation = 0.00029791 Body force = (0 , 0 , 0) 
 At (1.625 , 0.375 , 0.05 )  Deviation = 0.000349935 Body force = (0 , 0 , 0) 
 At (1.675 , 0.375 , 0.05 )  Deviation = 0.000349929 Body force = (0 , 0 , 0) 
 At (1.725 , 0.375 , 0.05 )  Deviation = 0.000349942 Body force = (0 , 0 , 0) 
 At (1.775 , 0.375 , 0.05 )  Deviation = 0.000349942 Body force = (0 , 0 , 0) 
 At (1.825 , 0.375 , 0.05 )  Deviation = 0.000349941 Body force = (0 , 0 , 0) 
 At (1.875 , 0.375 , 0.05 )  Deviation = 0.000349941 Body force = (0 , 0 , 0) 
 At (1.925 , 0.375 , 0.05 )  Deviation = 0.00034994 Body force = (0 , 0 , 0) 
 At (1.975 , 0.375 , 0.05 )  Deviation = 0.00034994 Body force = (0 , 0 , 0) 
 At (0.025 , 0.425 , 0.05 )  Deviation = 0.000349939 Body force = (0 , 0 , 0) 
 At (0.075 , 0.425 , 0.05 )  Deviation = 0.000349939 Body force = (0 , 0 , 0) 
 At (0.125 , 0.425 , 0.05 )  Deviation = 0.000349938 Body force = (0 , 0 , 0) 
 At (0.175 , 0.425 , 0.05 )  Deviation = 0.000349938 Body force = (0 , 0 , 0) 
 At (0.225 , 0.425 , 0.05 )  Deviation = 0.000349936 Body force = (0 , 0 , 0) 
 At (0.275 , 0.425 , 0.05 )  Deviation = 0.000349937 Body force = (0 , 0 , 0) 
 At (0.325 , 0.425 , 0.05 )  Deviation = 0.000349933 Body force = (0 , 0 , 0) 
 At (0.375 , 0.425 , 0.05 )  Deviation = 0.000349935 Body force = (0 , 0 , 0) 
 At (0.425 , 0.425 , 0.05 )  Deviation = 0.000349928 Body force = (0 , 0 , 0) 
 At (0.475 , 0.425 , 0.05 )  Deviation = 0.00034993 Body force = (0 , 0 , 0) 
 At (0.525 , 0.425 , 0.05 )  Deviation = 0.161976 Body force = (-4.10209 , -25.1034 , -0) 
 At (0.575 , 0.425 , 0.05 )  Deviation = 0.150289 Body force = (-3.53495 , -23.3436 , -0) 
 At (0.625 , 0.425 , 0.05 )  Deviation = 0.139397 Body force = (-3.0443 , -21.6975 , -0) 
 At (0.675 , 0.425 , 0.05 )  Deviation = 0.129212 Body force = (-2.61984 , -20.1625 , -0) 
 At (0.725 , 0.425 , 0.05 )  Deviation = 0.11964 Body force = (-2.2512 , -18.7266 , -0) 
 At (0.775 , 0.425 , 0.05 )  Deviation = 0.110566 Body force = (-1.92744 , -17.3613 , -0) 
 At (0.825 , 0.425 , 0.05 )  Deviation = 0.101883 Body force = (-1.6401 , -16.0421 , -0) 
 At (0.875 , 0.425 , 0.05 )  Deviation = 0.0935079 Body force = (-1.38388 , -14.7565 , -0) 
 At (0.925 , 0.425 , 0.05 )  Deviation = 0.0853891 Body force = (-1.1556 , -13.5005 , -0) 
 At (0.975 , 0.425 , 0.05 )  Deviation = 0.0775067 Body force = (-0.953286 , -12.2748 , -0) 
 At (1.025 , 0.425 , 0.05 )  Deviation = 0.0698683 Body force = (-0.775608 , -11.0829 , -0) 
 At (1.075 , 0.425 , 0.05 )  Deviation = 0.0625033 Body force = (-0.621521 , -9.93086 , -0) 
 At (1.125 , 0.425 , 0.05 )  Deviation = 0.055457 Body force = (-0.489972 , -8.82612 , -0) 
 At (1.175 , 0.425 , 0.05 )  Deviation = 0.0487818 Body force = (-0.379684 , -7.77715 , -0) 
 At (1.225 , 0.425 , 0.05 )  Deviation = 0.0425301 Body force = (-0.289049 , -6.79223 , -0) 
 At (1.275 , 0.425 , 0.05 )  Deviation = 0.0367472 Body force = (-0.216123 , -5.8787 , -0) 
 At (1.325 , 0.425 , 0.05 )  Deviation = 0.0314663 Body force = (-0.15871 , -5.04214 , -0) 
 At (1.375 , 0.425 , 0.05 )  Deviation = 0.0267064 Body force = (-0.114491 , -4.286 , -0) 
 At (1.425 , 0.425 , 0.05 )  Deviation = 0.0224709 Body force = (-0.0811643 , -3.61136 , -0) 
 At (1.475 , 0.425 , 0.05 )  Deviation = 0.0187488 Body force = (-0.0565718 , -3.017 , -0) 
 At (1.525 , 0.425 , 0.05 )  Deviation = 0.00031636 Body force = (0 , 0 , 0) 
 At (1.575 , 0.425 , 0.05 )  Deviation = 0.000317576 Body force = (0 , 0 , 0) 
 At (1.625 , 0.425 , 0.05 )  Deviation = 0.000314001 Body force = (0 , 0 , 0) 
 At (1.675 , 0.425 , 0.05 )  Deviation = 0.000315144 Body force = (0 , 0 , 0) 
 At (1.725 , 0.425 , 0.05 )  Deviation = 0.000311798 Body force = (0 , 0 , 0) 
 At (1.775 , 0.425 , 0.05 )  Deviation = 0.000312858 Body force = (0 , 0 , 0) 
 At (1.825 , 0.425 , 0.05 )  Deviation = 0.000309768 Body force = (0 , 0 , 0) 
 At (1.875 , 0.425 , 0.05 )  Deviation = 0.000310738 Body force = (0 , 0 , 0) 
 At (1.925 , 0.425 , 0.05 )  Deviation = 0.000307924 Body force = (0 , 0 , 0) 
 At (1.975 , 0.425 , 0.05 )  Deviation = 0.000308799 Body force = (0 , 0 , 0) 
 At (0.025 , 0.475 , 0.05 )  Deviation = 0.000306272 Body force = (0 , 0 , 0) 
 At (0.075 , 0.475 , 0.05 )  Deviation = 0.000307049 Body force = (0 , 0 , 0) 
 At (0.125 , 0.475 , 0.05 )  Deviation = 0.000304812 Body force = (0 , 0 , 0) 
 At (0.175 , 0.475 , 0.05 )  Deviation = 0.000305494 Body force = (0 , 0 , 0) 
 At (0.225 , 0.475 , 0.05 )  Deviation = 0.000303541 Body force = (0 , 0 , 0) 
 At (0.275 , 0.475 , 0.05 )  Deviation = 0.000304131 Body force = (0 , 0 , 0) 
 At (0.325 , 0.475 , 0.05 )  Deviation = 0.000302447 Body force = (0 , 0 , 0) 
 At (0.375 , 0.475 , 0.05 )  Deviation = 0.000302951 Body force = (0 , 0 , 0) 
 At (0.425 , 0.475 , 0.05 )  Deviation = 0.000301518 Body force = (0 , 0 , 0) 
 At (0.475 , 0.475 , 0.05 )  Deviation = 0.000301943 Body force = (0 , 0 , 0) 
 At (0.525 , 0.475 , 0.05 )  Deviation = 0.161976 Body force = (-4.10207 , -25.1034 , -0) 
 At (0.575 , 0.475 , 0.05 )  Deviation = 0.150289 Body force = (-3.53493 , -23.3435 , -0) 
 At (0.625 , 0.475 , 0.05 )  Deviation = 0.139396 Body force = (-3.04428 , -21.6974 , -0) 
 At (0.675 , 0.475 , 0.05 )  Deviation = 0.129212 Body force = (-2.61982 , -20.1624 , -0) 
 At (0.725 , 0.475 , 0.05 )  Deviation = 0.119639 Body force = (-2.25118 , -18.7265 , -0) 
 At (0.775 , 0.475 , 0.05 )  Deviation = 0.110566 Body force = (-1.92743 , -17.3613 , -0) 
 At (0.825 , 0.475 , 0.05 )  Deviation = 0.101883 Body force = (-1.64009 , -16.042 , -0) 
 At (0.875 , 0.475 , 0.05 )  Deviation = 0.0935076 Body force = (-1.38387 , -14.7564 , -0) 
 At (0.925 , 0.475 , 0.05 )  Deviation = 0.0853887 Body force = (-1.15559 , -13.5004 , -0) 
 At (0.975 , 0.475 , 0.05 )  Deviation = 0.0775064 Body force = (-0.953279 , -12.2747 , -0) 
 At (1.025 , 0.475 , 0.05 )  Deviation = 0.069868 Body force = (-0.775601 , -11.0829 , -0) 
 At (1.075 , 0.475 , 0.05 )  Deviation = 0.0625031 Body force = (-0.621516 , -9.93082 , -0) 
 At (1.125 , 0.475 , 0.05 )  Deviation = 0.0554567 Body force = (-0.489968 , -8.82609 , -0) 
 At (1.175 , 0.475 , 0.05 )  Deviation = 0.0487816 Body force = (-0.379682 , -7.77712 , -0) 
 At (1.225 , 0.475 , 0.05 )  Deviation = 0.04253 Body force = (-0.289047 , -6.79221 , -0) 
 At (1.275 , 0.475 , 0.05 )  Deviation = 0.0367471 Body force = (-0.216122 , -5.87868 , -0) 
 At (1.325 , 0.475 , 0.05 )  Deviation = 0.0314663 Body force = (-0.15871 , -5.04214 , -0) 
 At (1.375 , 0.475 , 0.05 )  Deviation = 0.0267065 Body force = (-0.114491 , -4.28601 , -0) 
 At (1.425 , 0.475 , 0.05 )  Deviation = 0.022471 Body force = (-0.0811649 , -3.61137 , -0) 
 At (1.475 , 0.475 , 0.05 )  Deviation = 0.018749 Body force = (-0.0565726 , -3.01702 , -0) 
 At (1.525 , 0.475 , 0.05 )  Deviation = 0.00029791 Body force = (0 , 0 , 0) 
 At (1.575 , 0.475 , 0.05 )  Deviation = 0.000349935 Body force = (0 , 0 , 0) 
 At (1.625 , 0.475 , 0.05 )  Deviation = 0.000349929 Body force = (0 , 0 , 0) 
 At (1.675 , 0.475 , 0.05 )  Deviation = 0.000349941 Body force = (0 , 0 , 0) 
 At (1.725 , 0.475 , 0.05 )  Deviation = 0.000349942 Body force = (0 , 0 , 0) 
 At (1.775 , 0.475 , 0.05 )  Deviation = 0.00034994 Body force = (0 , 0 , 0) 
 At (1.825 , 0.475 , 0.05 )  Deviation = 0.000349941 Body force = (0 , 0 , 0) 
 At (1.875 , 0.475 , 0.05 )  Deviation = 0.000349939 Body force = (0 , 0 , 0) 
 At (1.925 , 0.475 , 0.05 )  Deviation = 0.00034994 Body force = (0 , 0 , 0) 
 At (1.975 , 0.475 , 0.05 )  Deviation = 0.000349939 Body force = (0 , 0 , 0) 
 At (0.025 , 0.525 , 0.05 )  Deviation = 0.000349939 Body force = (0 , 0 , 0) 
 At (0.075 , 0.525 , 0.05 )  Deviation = 0.000349938 Body force = (0 , 0 , 0) 
 At (0.125 , 0.525 , 0.05 )  Deviation = 0.000349938 Body force = (0 , 0 , 0) 
 At (0.175 , 0.525 , 0.05 )  Deviation = 0.000349936 Body force = (0 , 0 , 0) 
 At (0.225 , 0.525 , 0.05 )  Deviation = 0.000349937 Body force = (0 , 0 , 0) 
 At (0.275 , 0.525 , 0.05 )  Deviation = 0.000349932 Body force = (0 , 0 , 0) 
 At (0.325 , 0.525 , 0.05 )  Deviation = 0.000349935 Body force = (0 , 0 , 0) 
 At (0.375 , 0.525 , 0.05 )  Deviation = 0.000349928 Body force = (0 , 0 , 0) 
 At (0.425 , 0.525 , 0.05 )  Deviation = 0.00034993 Body force = (0 , 0 , 0) 
 At (0.475 , 0.525 , 0.05 )  Deviation = 0.000347754 Body force = (0 , 0 , 0) 
 At (0.525 , 0.525 , 0.05 )  Deviation = 0.161975 Body force = (-4.10206 , -25.1033 , -0) 
 At (0.575 , 0.525 , 0.05 )  Deviation = 0.150289 Body force = (-3.53491 , -23.3435 , -0) 
 At (0.625 , 0.525 , 0.05 )  Deviation = 0.139396 Body force = (-3.04426 , -21.6973 , -0) 
 At (0.675 , 0.525 , 0.05 )  Deviation = 0.129211 Body force = (-2.6198 , -20.1623 , -0) 
 At (0.725 , 0.525 , 0.05 )  Deviation = 0.119639 Body force = (-2.25117 , -18.7265 , -0) 
 At (0.775 , 0.525 , 0.05 )  Deviation = 0.110566 Body force = (-1.92741 , -17.3612 , -0) 
 At (0.825 , 0.525 , 0.05 )  Deviation = 0.101883 Body force = (-1.64008 , -16.042 , -0) 
 At (0.875 , 0.525 , 0.05 )  Deviation = 0.0935072 Body force = (-1.38386 , -14.7563 , -0) 
 At (0.925 , 0.525 , 0.05 )  Deviation = 0.0853884 Body force = (-1.15558 , -13.5004 , -0) 
 At (0.975 , 0.525 , 0.05 )  Deviation = 0.0775061 Body force = (-0.953271 , -12.2747 , -0) 
 At (1.025 , 0.525 , 0.05 )  Deviation = 0.0698677 Body force = (-0.775595 , -11.0828 , -0) 
 At (1.075 , 0.525 , 0.05 )  Deviation = 0.0625028 Body force = (-0.621511 , -9.93078 , -0) 
 At (1.125 , 0.525 , 0.05 )  Deviation = 0.0554565 Body force = (-0.489964 , -8.82605 , -0) 
 At (1.175 , 0.525 , 0.05 )  Deviation = 0.0487814 Body force = (-0.379679 , -7.77709 , -0) 
 At (1.225 , 0.525 , 0.05 )  Deviation = 0.0425298 Body force = (-0.289045 , -6.79219 , -0) 
 At (1.275 , 0.525 , 0.05 )  Deviation = 0.036747 Body force = (-0.216121 , -5.87867 , -0) 
 At (1.325 , 0.525 , 0.05 )  Deviation = 0.0314663 Body force = (-0.15871 , -5.04214 , -0) 
 At (1.375 , 0.525 , 0.05 )  Deviation = 0.0267065 Body force = (-0.114492 , -4.28601 , -0) 
 At (1.425 , 0.525 , 0.05 )  Deviation = 0.0224711 Body force = (-0.0811655 , -3.61139 , -0) 
 At (1.475 , 0.525 , 0.05 )  Deviation = 0.0187491 Body force = (-0.0565733 , -3.01704 , -0) 
 At (1.525 , 0.525 , 0.05 )  Deviation = 0.000317576 Body force = (0 , 0 , 0) 
 At (1.575 , 0.525 , 0.05 )  Deviation = 0.000314001 Body force = (0 , 0 , 0) 
 At (1.625 , 0.525 , 0.05 )  Deviation = 0.000315144 Body force = (0 , 0 , 0) 
 At (1.675 , 0.525 , 0.05 )  Deviation = 0.000311798 Body force = (0 , 0 , 0) 
 At (1.725 , 0.525 , 0.05 )  Deviation = 0.000312858 Body force = (0 , 0 , 0) 
 At (1.775 , 0.525 , 0.05 )  Deviation = 0.000309768 Body force = (0 , 0 , 0) 
 At (1.825 , 0.525 , 0.05 )  Deviation = 0.000310738 Body force = (0 , 0 , 0) 
 At (1.875 , 0.525 , 0.05 )  Deviation = 0.000307924 Body force = (0 , 0 , 0) 
 At (1.925 , 0.525 , 0.05 )  Deviation = 0.000308799 Body force = (0 , 0 , 0) 
 At (1.975 , 0.525 , 0.05 )  Deviation = 0.000306272 Body force = (0 , 0 , 0) 
 At (0.025 , 0.575 , 0.05 )  Deviation = 0.000307049 Body force = (0 , 0 , 0) 
 At (0.075 , 0.575 , 0.05 )  Deviation = 0.000304812 Body force = (0 , 0 , 0) 
 At (0.125 , 0.575 , 0.05 )  Deviation = 0.000305494 Body force = (0 , 0 , 0) 
 At (0.175 , 0.575 , 0.05 )  Deviation = 0.000303541 Body force = (0 , 0 , 0) 
 At (0.225 , 0.575 , 0.05 )  Deviation = 0.000304131 Body force = (0 , 0 , 0) 
 At (0.275 , 0.575 , 0.05 )  Deviation = 0.000302447 Body force = (0 , 0 , 0) 
 At (0.325 , 0.575 , 0.05 )  Deviation = 0.000302951 Body force = (0 , 0 , 0) 
 At (0.375 , 0.575 , 0.05 )  Deviation = 0.000301518 Body force = (0 , 0 , 0) 
 At (0.425 , 0.575 , 0.05 )  Deviation = 0.000301943 Body force = (0 , 0 , 0) 
 At (0.475 , 0.575 , 0.05 )  Deviation = 0.000300796 Body force = (0 , 0 , 0) 
 At (0.525 , 0.575 , 0.05 )  Deviation = 0.161975 Body force = (-4.10204 , -25.1033 , -0) 
 At (0.575 , 0.575 , 0.05 )  Deviation = 0.150288 Body force = (-3.5349 , -23.3434 , -0) 
 At (0.625 , 0.575 , 0.05 )  Deviation = 0.139395 Body force = (-3.04424 , -21.6973 , -0) 
 At (0.675 , 0.575 , 0.05 )  Deviation = 0.129211 Body force = (-2.61978 , -20.1623 , -0) 
 At (0.725 , 0.575 , 0.05 )  Deviation = 0.119638 Body force = (-2.25115 , -18.7264 , -0) 
 At (0.775 , 0.575 , 0.05 )  Deviation = 0.110565 Body force = (-1.9274 , -17.3611 , -0) 
 At (0.825 , 0.575 , 0.05 )  Deviation = 0.101882 Body force = (-1.64007 , -16.0419 , -0) 
 At (0.875 , 0.575 , 0.05 )  Deviation = 0.0935068 Body force = (-1.38385 , -14.7563 , -0) 
 At (0.925 , 0.575 , 0.05 )  Deviation = 0.085388 Body force = (-1.15557 , -13.5003 , -0) 
 At (0.975 , 0.575 , 0.05 )  Deviation = 0.0775058 Body force = (-0.953263 , -12.2746 , -0) 
 At (1.025 , 0.575 , 0.05 )  Deviation = 0.0698674 Body force = (-0.775588 , -11.0828 , -0) 
 At (1.075 , 0.575 , 0.05 )  Deviation = 0.0625025 Body force = (-0.621505 , -9.93074 , -0) 
 At (1.125 , 0.575 , 0.05 )  Deviation = 0.0554562 Body force = (-0.48996 , -8.82602 , -0) 
 At (1.175 , 0.575 , 0.05 )  Deviation = 0.0487812 Body force = (-0.379676 , -7.77706 , -0) 
 At (1.225 , 0.575 , 0.05 )  Deviation = 0.0425297 Body force = (-0.289043 , -6.79217 , -0) 
 At (1.275 , 0.575 , 0.05 )  Deviation = 0.0367469 Body force = (-0.21612 , -5.87866 , -0) 
 At (1.325 , 0.575 , 0.05 )  Deviation = 0.0314663 Body force = (-0.158709 , -5.04213 , -0) 
 At (1.375 , 0.575 , 0.05 )  Deviation = 0.0267065 Body force = (-0.114492 , -4.28602 , -0) 
 At (1.425 , 0.575 , 0.05 )  Deviation = 0.0224711 Body force = (-0.0811659 , -3.6114 , -0) 
 At (1.475 , 0.575 , 0.05 )  Deviation = 0.0187492 Body force = (-0.0565739 , -3.01705 , -0) 
 At (1.525 , 0.575 , 0.05 )  Deviation = 0.000349935 Body force = (0 , 0 , 0) 
 At (1.575 , 0.575 , 0.05 )  Deviation = 0.000349929 Body force = (0 , 0 , 0) 
 At (1.625 , 0.575 , 0.05 )  Deviation = 0.000349941 Body force = (0 , 0 , 0) 
 At (1.675 , 0.575 , 0.05 )  Deviation = 0.000349942 Body force = (0 , 0 , 0) 
 At (1.725 , 0.575 , 0.05 )  Deviation = 0.00034994 Body force = (0 , 0 , 0) 
 At (1.775 , 0.575 , 0.05 )  Deviation = 0.000349941 Body force = (0 , 0 , 0) 
 At (1.825 , 0.575 , 0.05 )  Deviation = 0.000349939 Body force = (0 , 0 , 0) 
 At (1.875 , 0.575 , 0.05 )  Deviation = 0.000349939 Body force = (0 , 0 , 0) 
 At (1.925 , 0.575 , 0.05 )  Deviation = 0.000349938 Body force = (0 , 0 , 0) 
 At (1.975 , 0.575 , 0.05 )  Deviation = 0.000349939 Body force = (0 , 0 , 0) 
 At (0.025 , 0.625 , 0.05 )  Deviation = 0.000349938 Body force = (0 , 0 , 0) 
 At (0.075 , 0.625 , 0.05 )  Deviation = 0.000349938 Body force = (0 , 0 , 0) 
 At (0.125 , 0.625 , 0.05 )  Deviation = 0.000349936 Body force = (0 , 0 , 0) 
 At (0.175 , 0.625 , 0.05 )  Deviation = 0.000349937 Body force = (0 , 0 , 0) 
 At (0.225 , 0.625 , 0.05 )  Deviation = 0.000349932 Body force = (0 , 0 , 0) 
 At (0.275 , 0.625 , 0.05 )  Deviation = 0.000349935 Body force = (0 , 0 , 0) 
 At (0.325 , 0.625 , 0.05 )  Deviation = 0.000349928 Body force = (0 , 0 , 0) 
 At (0.375 , 0.625 , 0.05 )  Deviation = 0.00034993 Body force = (0 , 0 , 0) 
 At (0.425 , 0.625 , 0.05 )  Deviation = 0.000347754 Body force = (0 , 0 , 0) 
 At (0.475 , 0.625 , 0.05 )  Deviation = 0.000349925 Body force = (0 , 0 , 0) 
 At (0.525 , 0.625 , 0.05 )  Deviation = 0.161975 Body force = (-4.10203 , -25.1032 , -0) 
 At (0.575 , 0.625 , 0.05 )  Deviation = 0.150288 Body force = (-3.53488 , -23.3434 , -0) 
 At (0.625 , 0.625 , 0.05 )  Deviation = 0.139395 Body force = (-3.04422 , -21.6972 , -0) 
 At (0.675 , 0.625 , 0.05 )  Deviation = 0.129211 Body force = (-2.61977 , -20.1622 , -0) 
 At (0.725 , 0.625 , 0.05 )  Deviation = 0.119638 Body force = (-2.25114 , -18.7264 , -0) 
 At (0.775 , 0.625 , 0.05 )  Deviation = 0.110565 Body force = (-1.92738 , -17.3611 , -0) 
 At (0.825 , 0.625 , 0.05 )  Deviation = 0.101882 Body force = (-1.64006 , -16.0419 , -0) 
 At (0.875 , 0.625 , 0.05 )  Deviation = 0.0935065 Body force = (-1.38384 , -14.7563 , -0) 
 At (0.925 , 0.625 , 0.05 )  Deviation = 0.0853877 Body force = (-1.15557 , -13.5003 , -0) 
 At (0.975 , 0.625 , 0.05 )  Deviation = 0.0775055 Body force = (-0.953257 , -12.2746 , -0) 
 At (1.025 , 0.625 , 0.05 )  Deviation = 0.0698671 Body force = (-0.775583 , -11.0828 , -0) 
 At (1.075 , 0.625 , 0.05 )  Deviation = 0.0625023 Body force = (-0.621501 , -9.9307 , -0) 
 At (1.125 , 0.625 , 0.05 )  Deviation = 0.055456 Body force = (-0.489957 , -8.82599 , -0) 
 At (1.175 , 0.625 , 0.05 )  Deviation = 0.048781 Body force = (-0.379673 , -7.77704 , -0) 
 At (1.225 , 0.625 , 0.05 )  Deviation = 0.0425296 Body force = (-0.289042 , -6.79215 , -0) 
 At (1.275 , 0.625 , 0.05 )  Deviation = 0.0367468 Body force = (-0.216119 , -5.87865 , -0) 
 At (1.325 , 0.625 , 0.05 )  Deviation = 0.0314662 Body force = (-0.158709 , -5.04213 , -0) 
 At (1.375 , 0.625 , 0.05 )  Deviation = 0.0267065 Body force = (-0.114492 , -4.28602 , -0) 
 At (1.425 , 0.625 , 0.05 )  Deviation = 0.0224712 Body force = (-0.081166 , -3.6114 , -0) 
 At (1.475 , 0.625 , 0.05 )  Deviation = 0.0187492 Body force = (-0.0565742 , -3.01706 , -0) 
 At (1.525 , 0.625 , 0.05 )  Deviation = 0.000314001 Body force = (0 , 0 , 0) 
 At (1.575 , 0.625 , 0.05 )  Deviation = 0.000315144 Body force = (0 , 0 , 0) 
 At (1.625 , 0.625 , 0.05 )  Deviation = 0.000311798 Body force = (0 , 0 , 0) 
 At (1.675 , 0.625 , 0.05 )  Deviation = 0.000312858 Body force = (0 , 0 , 0) 
 At (1.725 , 0.625 , 0.05 )  Deviation = 0.000309768 Body force = (0 , 0 , 0) 
 At (1.775 , 0.625 , 0.05 )  Deviation = 0.000310738 Body force = (0 , 0 , 0) 
 At (1.825 , 0.625 , 0.05 )  Deviation = 0.000307924 Body force = (0 , 0 , 0) 
 At (1.875 , 0.625 , 0.05 )  Deviation = 0.000308799 Body force = (0 , 0 , 0) 
 At (1.925 , 0.625 , 0.05 )  Deviation = 0.000306272 Body force = (0 , 0 , 0) 
 At (1.975 , 0.625 , 0.05 )  Deviation = 0.000307049 Body force = (0 , 0 , 0) 
 At (0.025 , 0.675 , 0.05 )  Deviation = 0.000304813 Body force = (0 , 0 , 0) 
 At (0.075 , 0.675 , 0.05 )  Deviation = 0.000305494 Body force = (0 , 0 , 0) 
 At (0.125 , 0.675 , 0.05 )  Deviation = 0.000303541 Body force = (0 , 0 , 0) 
 At (0.175 , 0.675 , 0.05 )  Deviation = 0.000304131 Body force = (0 , 0 , 0) 
 At (0.225 , 0.675 , 0.05 )  Deviation = 0.000302447 Body force = (0 , 0 , 0) 
 At (0.275 , 0.675 , 0.05 )  Deviation = 0.000302951 Body force = (0 , 0 , 0) 
 At (0.325 , 0.675 , 0.05 )  Deviation = 0.000301518 Body force = (0 , 0 , 0) 
 At (0.375 , 0.675 , 0.05 )  Deviation = 0.000301943 Body force = (0 , 0 , 0) 
 At (0.425 , 0.675 , 0.05 )  Deviation = 0.000300796 Body force = (0 , 0 , 0) 
 At (0.475 , 0.675 , 0.05 )  Deviation = 0.000301092 Body force = (0 , 0 , 0) 
 At (0.525 , 0.675 , 0.05 )  Deviation = 0.161974 Body force = (-4.10201 , -25.1032 , -0) 
 At (0.575 , 0.675 , 0.05 )  Deviation = 0.150288 Body force = (-3.53486 , -23.3433 , -0) 
 At (0.625 , 0.675 , 0.05 )  Deviation = 0.139395 Body force = (-3.04421 , -21.6971 , -0) 
 At (0.675 , 0.675 , 0.05 )  Deviation = 0.12921 Body force = (-2.61975 , -20.1622 , -0) 
 At (0.725 , 0.675 , 0.05 )  Deviation = 0.119638 Body force = (-2.25113 , -18.7263 , -0) 
 At (0.775 , 0.675 , 0.05 )  Deviation = 0.110565 Body force = (-1.92738 , -17.3611 , -0) 
 At (0.825 , 0.675 , 0.05 )  Deviation = 0.101882 Body force = (-1.64005 , -16.0419 , -0) 
 At (0.875 , 0.675 , 0.05 )  Deviation = 0.0935064 Body force = (-1.38384 , -14.7562 , -0) 
 At (0.925 , 0.675 , 0.05 )  Deviation = 0.0853876 Body force = (-1.15556 , -13.5002 , -0) 
 At (0.975 , 0.675 , 0.05 )  Deviation = 0.0775053 Body force = (-0.953253 , -12.2746 , -0) 
 At (1.025 , 0.675 , 0.05 )  Deviation = 0.0698669 Body force = (-0.775579 , -11.0827 , -0) 
 At (1.075 , 0.675 , 0.05 )  Deviation = 0.062502 Body force = (-0.621497 , -9.93067 , -0) 
 At (1.125 , 0.675 , 0.05 )  Deviation = 0.0554558 Body force = (-0.489953 , -8.82596 , -0) 
 At (1.175 , 0.675 , 0.05 )  Deviation = 0.0487809 Body force = (-0.379671 , -7.77701 , -0) 
 At (1.225 , 0.675 , 0.05 )  Deviation = 0.0425294 Body force = (-0.28904 , -6.79213 , -0) 
 At (1.275 , 0.675 , 0.05 )  Deviation = 0.0367467 Body force = (-0.216118 , -5.87863 , -0) 
 At (1.325 , 0.675 , 0.05 )  Deviation = 0.0314661 Body force = (-0.158708 , -5.04212 , -0) 
 At (1.375 , 0.675 , 0.05 )  Deviation = 0.0267065 Body force = (-0.114491 , -4.28601 , -0) 
 At (1.425 , 0.675 , 0.05 )  Deviation = 0.0224711 Body force = (-0.0811659 , -3.6114 , -0) 
 At (1.475 , 0.675 , 0.05 )  Deviation = 0.0187492 Body force = (-0.0565743 , -3.01706 , -0) 
 At (1.525 , 0.675 , 0.05 )  Deviation = 0.000349929 Body force = (0 , 0 , 0) 
 At (1.575 , 0.675 , 0.05 )  Deviation = 0.000349941 Body force = (0 , 0 , 0) 
 At (1.625 , 0.675 , 0.05 )  Deviation = 0.000349942 Body force = (0 , 0 , 0) 
 At (1.675 , 0.675 , 0.05 )  Deviation = 0.00034994 Body force = (0 , 0 , 0) 
 At (1.725 , 0.675 , 0.05 )  Deviation = 0.000349941 Body force = (0 , 0 , 0) 
 At (1.775 , 0.675 , 0.05 )  Deviation = 0.000349939 Body force = (0 , 0 , 0) 
 At (1.825 , 0.675 , 0.05 )  Deviation = 0.000349939 Body force = (0 , 0 , 0) 
 At (1.875 , 0.675 , 0.05 )  Deviation = 0.000349938 Body force = (0 , 0 , 0) 
 At (1.925 , 0.675 , 0.05 )  Deviation = 0.000349938 Body force = (0 , 0 , 0) 
 At (1.975 , 0.675 , 0.05 )  Deviation = 0.000349938 Body force = (0 , 0 , 0) 
 At (0.025 , 0.725 , 0.05 )  Deviation = 0.000349938 Body force = (0 , 0 , 0) 
 At (0.075 , 0.725 , 0.05 )  Deviation = 0.000349936 Body force = (0 , 0 , 0) 
 At (0.125 , 0.725 , 0.05 )  Deviation = 0.000349937 Body force = (0 , 0 , 0) 
 At (0.175 , 0.725 , 0.05 )  Deviation = 0.000349932 Body force = (0 , 0 , 0) 
 At (0.225 , 0.725 , 0.05 )  Deviation = 0.000349935 Body force = (0 , 0 , 0) 
 At (0.275 , 0.725 , 0.05 )  Deviation = 0.000349928 Body force = (0 , 0 , 0) 
 At (0.325 , 0.725 , 0.05 )  Deviation = 0.00034993 Body force = (0 , 0 , 0) 
 At (0.375 , 0.725 , 0.05 )  Deviation = 0.000347754 Body force = (0 , 0 , 0) 
 At (0.425 , 0.725 , 0.05 )  Deviation = 0.000349925 Body force = (0 , 0 , 0) 
 At (0.475 , 0.725 , 0.05 )  Deviation = 0.000343607 Body force = (0 , 0 , 0) 
 At (0.525 , 0.725 , 0.05 )  Deviation = 0.161974 Body force = (-4.10199 , -25.1031 , -0) 
 At (0.575 , 0.725 , 0.05 )  Deviation = 0.150287 Body force = (-3.53484 , -23.3432 , -0) 
 At (0.625 , 0.725 , 0.05 )  Deviation = 0.139394 Body force = (-3.04419 , -21.6971 , -0) 
 At (0.675 , 0.725 , 0.05 )  Deviation = 0.12921 Body force = (-2.61974 , -20.1621 , -0) 
 At (0.725 , 0.725 , 0.05 )  Deviation = 0.119638 Body force = (-2.25112 , -18.7263 , -0) 
 At (0.775 , 0.725 , 0.05 )  Deviation = 0.110565 Body force = (-1.92738 , -17.3611 , -0) 
 At (0.825 , 0.725 , 0.05 )  Deviation = 0.101882 Body force = (-1.64006 , -16.0419 , -0) 
 At (0.875 , 0.725 , 0.05 )  Deviation = 0.0935065 Body force = (-1.38384 , -14.7563 , -0) 
 At (0.925 , 0.725 , 0.05 )  Deviation = 0.0853877 Body force = (-1.15557 , -13.5003 , -0) 
 At (0.975 , 0.725 , 0.05 )  Deviation = 0.0775053 Body force = (-0.953252 , -12.2746 , -0) 
 At (1.025 , 0.725 , 0.05 )  Deviation = 0.0698668 Body force = (-0.775577 , -11.0827 , -0) 
 At (1.075 , 0.725 , 0.05 )  Deviation = 0.0625019 Body force = (-0.621494 , -9.93065 , -0) 
 At (1.125 , 0.725 , 0.05 )  Deviation = 0.0554556 Body force = (-0.48995 , -8.82594 , -0) 
 At (1.175 , 0.725 , 0.05 )  Deviation = 0.0487807 Body force = (-0.379668 , -7.77699 , -0) 
 At (1.225 , 0.725 , 0.05 )  Deviation = 0.0425292 Body force = (-0.289038 , -6.79211 , -0) 
 At (1.275 , 0.725 , 0.05 )  Deviation = 0.0367466 Body force = (-0.216116 , -5.87861 , -0) 
 At (1.325 , 0.725 , 0.05 )  Deviation = 0.031466 Body force = (-0.158707 , -5.0421 , -0) 
 At (1.375 , 0.725 , 0.05 )  Deviation = 0.0267064 Body force = (-0.114491 , -4.286 , -0) 
 At (1.425 , 0.725 , 0.05 )  Deviation = 0.0224711 Body force = (-0.0811657 , -3.61139 , -0) 
 At (1.475 , 0.725 , 0.05 )  Deviation = 0.0187492 Body force = (-0.0565742 , -3.01706 , -0) 
 At (1.525 , 0.725 , 0.05 )  Deviation = 0.000315144 Body force = (0 , 0 , 0) 
 At (1.575 , 0.725 , 0.05 )  Deviation = 0.000311798 Body force = (0 , 0 , 0) 
 At (1.625 , 0.725 , 0.05 )  Deviation = 0.000312858 Body force = (0 , 0 , 0) 
 At (1.675 , 0.725 , 0.05 )  Deviation = 0.000309768 Body force = (0 , 0 , 0) 
 At (1.725 , 0.725 , 0.05 )  Deviation = 0.000310738 Body force = (0 , 0 , 0) 
 At (1.775 , 0.725 , 0.05 )  Deviation = 0.000307924 Body force = (0 , 0 , 0) 
 At (1.825 , 0.725 , 0.05 )  Deviation = 0.000308799 Body force = (0 , 0 , 0) 
 At (1.875 , 0.725 , 0.05 )  Deviation = 0.000306272 Body force = (0 , 0 , 0) 
 At (1.925 , 0.725 , 0.05 )  Deviation = 0.000307049 Body force = (0 , 0 , 0) 
 At (1.975 , 0.725 , 0.05 )  Deviation = 0.000304813 Body force = (0 , 0 , 0) 
 At (0.025 , 0.775 , 0.05 )  Deviation = 0.000305494 Body force = (0 , 0 , 0) 
 At (0.075 , 0.775 , 0.05 )  Deviation = 0.000303541 Body force = (0 , 0 , 0) 
 At (0.125 , 0.775 , 0.05 )  Deviation = 0.000304131 Body force = (0 , 0 , 0) 
 At (0.175 , 0.775 , 0.05 )  Deviation = 0.000302447 Body force = (0 , 0 , 0) 
 At (0.225 , 0.775 , 0.05 )  Deviation = 0.000302951 Body force = (0 , 0 , 0) 
 At (0.275 , 0.775 , 0.05 )  Deviation = 0.000301518 Body force = (0 , 0 , 0) 
 At (0.325 , 0.775 , 0.05 )  Deviation = 0.000301943 Body force = (0 , 0 , 0) 
 At (0.375 , 0.775 , 0.05 )  Deviation = 0.000300796 Body force = (0 , 0 , 0) 
 At (0.425 , 0.775 , 0.05 )  Deviation = 0.000301092 Body force = (0 , 0 , 0) 
 At (0.475 , 0.775 , 0.05 )  Deviation = 0.00030024 Body force = (0 , 0 , 0) 
 At (0.525 , 0.775 , 0.05 )  Deviation = 0.161974 Body force = (-4.10196 , -25.103 , -0) 
 At (0.575 , 0.775 , 0.05 )  Deviation = 0.150286 Body force = (-3.5348 , -23.3431 , -0) 
 At (0.625 , 0.775 , 0.05 )  Deviation = 0.139393 Body force = (-3.04415 , -21.6969 , -0) 
 At (0.675 , 0.775 , 0.05 )  Deviation = 0.129209 Body force = (-2.61971 , -20.162 , -0) 
 At (0.725 , 0.775 , 0.05 )  Deviation = 0.119637 Body force = (-2.2511 , -18.7262 , -0) 
 At (0.775 , 0.775 , 0.05 )  Deviation = 0.110564 Body force = (-1.92737 , -17.361 , -0) 
 At (0.825 , 0.775 , 0.05 )  Deviation = 0.101882 Body force = (-1.64006 , -16.0419 , -0) 
 At (0.875 , 0.775 , 0.05 )  Deviation = 0.0935067 Body force = (-1.38385 , -14.7563 , -0) 
 At (0.925 , 0.775 , 0.05 )  Deviation = 0.0853878 Body force = (-1.15557 , -13.5003 , -0) 
 At (0.975 , 0.775 , 0.05 )  Deviation = 0.0775054 Body force = (-0.953254 , -12.2746 , -0) 
 At (1.025 , 0.775 , 0.05 )  Deviation = 0.0698668 Body force = (-0.775575 , -11.0827 , -0) 
 At (1.075 , 0.775 , 0.05 )  Deviation = 0.0625017 Body force = (-0.621491 , -9.93063 , -0) 
 At (1.125 , 0.775 , 0.05 )  Deviation = 0.0554554 Body force = (-0.489946 , -8.8259 , -0) 
 At (1.175 , 0.775 , 0.05 )  Deviation = 0.0487804 Body force = (-0.379664 , -7.77695 , -0) 
 At (1.225 , 0.775 , 0.05 )  Deviation = 0.042529 Body force = (-0.289034 , -6.79208 , -0) 
 At (1.275 , 0.775 , 0.05 )  Deviation = 0.0367464 Body force = (-0.216114 , -5.87859 , -0) 
 At (1.325 , 0.775 , 0.05 )  Deviation = 0.0314659 Body force = (-0.158706 , -5.04208 , -0) 
 At (1.375 , 0.775 , 0.05 )  Deviation = 0.0267063 Body force = (-0.11449 , -4.28599 , -0) 
 At (1.425 , 0.775 , 0.05 )  Deviation = 0.022471 Body force = (-0.0811651 , -3.61138 , -0) 
 At (1.475 , 0.775 , 0.05 )  Deviation = 0.0187492 Body force = (-0.0565738 , -3.01705 , -0) 
 At (1.525 , 0.775 , 0.05 )  Deviation = 0.000349941 Body force = (0 , 0 , 0) 
 At (1.575 , 0.775 , 0.05 )  Deviation = 0.000349942 Body force = (0 , 0 , 0) 
 At (1.625 , 0.775 , 0.05 )  Deviation = 0.00034994 Body force = (0 , 0 , 0) 
 At (1.675 , 0.775 , 0.05 )  Deviation = 0.000349941 Body force = (0 , 0 , 0) 
 At (1.725 , 0.775 , 0.05 )  Deviation = 0.000349939 Body force = (0 , 0 , 0) 
 At (1.775 , 0.775 , 0.05 )  Deviation = 0.000349939 Body force = (0 , 0 , 0) 
 At (1.825 , 0.775 , 0.05 )  Deviation = 0.000349938 Body force = (0 , 0 , 0) 
 At (1.875 , 0.775 , 0.05 )  Deviation = 0.000349938 Body force = (0 , 0 , 0) 
 At (1.925 , 0.775 , 0.05 )  Deviation = 0.000349937 Body force = (0 , 0 , 0) 
 At (1.975 , 0.775 , 0.05 )  Deviation = 0.000349938 Body force = (0 , 0 , 0) 
 At (0.025 , 0.825 , 0.05 )  Deviation = 0.000349936 Body force = (0 , 0 , 0) 
 At (0.075 , 0.825 , 0.05 )  Deviation = 0.000349937 Body force = (0 , 0 , 0) 
 At (0.125 , 0.825 , 0.05 )  Deviation = 0.000349932 Body force = (0 , 0 , 0) 
 At (0.175 , 0.825 , 0.05 )  Deviation = 0.000349935 Body force = (0 , 0 , 0) 
 At (0.225 , 0.825 , 0.05 )  Deviation = 0.000349928 Body force = (0 , 0 , 0) 
 At (0.275 , 0.825 , 0.05 )  Deviation = 0.00034993 Body force = (0 , 0 , 0) 
 At (0.325 , 0.825 , 0.05 )  Deviation = 0.000347754 Body force = (0 , 0 , 0) 
 At (0.375 , 0.825 , 0.05 )  Deviation = 0.000349925 Body force = (0 , 0 , 0) 
 At (0.425 , 0.825 , 0.05 )  Deviation = 0.000343607 Body force = (0 , 0 , 0) 
 At (0.475 , 0.825 , 0.05 )  Deviation = 0.000345583 Body force = (0 , 0 , 0) 
 At (0.525 , 0.825 , 0.05 )  Deviation = 0.161974 Body force = (-4.10195 , -25.103 , -0) 
 At (0.575 , 0.825 , 0.05 )  Deviation = 0.150286 Body force = (-3.53477 , -23.343 , -0) 
 At (0.625 , 0.825 , 0.05 )  Deviation = 0.139392 Body force = (-3.04411 , -21.6968 , -0) 
 At (0.675 , 0.825 , 0.05 )  Deviation = 0.129208 Body force = (-2.61968 , -20.1619 , -0) 
 At (0.725 , 0.825 , 0.05 )  Deviation = 0.119636 Body force = (-2.25108 , -18.7262 , -0) 
 At (0.775 , 0.825 , 0.05 )  Deviation = 0.110564 Body force = (-1.92736 , -17.361 , -0) 
 At (0.825 , 0.825 , 0.05 )  Deviation = 0.101882 Body force = (-1.64006 , -16.0419 , -0) 
 At (0.875 , 0.825 , 0.05 )  Deviation = 0.0935068 Body force = (-1.38385 , -14.7563 , -0) 
 At (0.925 , 0.825 , 0.05 )  Deviation = 0.0853879 Body force = (-1.15557 , -13.5003 , -0) 
 At (0.975 , 0.825 , 0.05 )  Deviation = 0.0775054 Body force = (-0.953255 , -12.2746 , -0) 
 At (1.025 , 0.825 , 0.05 )  Deviation = 0.0698667 Body force = (-0.775573 , -11.0827 , -0) 
 At (1.075 , 0.825 , 0.05 )  Deviation = 0.0625015 Body force = (-0.621486 , -9.93059 , -0) 
 At (1.125 , 0.825 , 0.05 )  Deviation = 0.0554551 Body force = (-0.489941 , -8.82586 , -0) 
 At (1.175 , 0.825 , 0.05 )  Deviation = 0.0487801 Body force = (-0.379659 , -7.7769 , -0) 
 At (1.225 , 0.825 , 0.05 )  Deviation = 0.0425286 Body force = (-0.28903 , -6.79202 , -0) 
 At (1.275 , 0.825 , 0.05 )  Deviation = 0.036746 Body force = (-0.21611 , -5.87854 , -0) 
 At (1.325 , 0.825 , 0.05 )  Deviation = 0.0314656 Body force = (-0.158703 , -5.04204 , -0) 
 At (1.375 , 0.825 , 0.05 )  Deviation = 0.026706 Body force = (-0.114488 , -4.28595 , -0) 
 At (1.425 , 0.825 , 0.05 )  Deviation = 0.0224708 Body force = (-0.0811635 , -3.61135 , -0) 
 At (1.475 , 0.825 , 0.05 )  Deviation = 0.018749 Body force = (-0.0565727 , -3.01702 , -0) 
 At (1.525 , 0.825 , 0.05 )  Deviation = 0.000311798 Body force = (0 , 0 , 0) 
 At (1.575 , 0.825 , 0.05 )  Deviation = 0.000312858 Body force = (0 , 0 , 0) 
 At (1.625 , 0.825 , 0.05 )  Deviation = 0.000309768 Body force = (0 , 0 , 0) 
 At (1.675 , 0.825 , 0.05 )  Deviation = 0.000310738 Body force = (0 , 0 , 0) 
 At (1.725 , 0.825 , 0.05 )  Deviation = 0.000307924 Body force = (0 , 0 , 0) 
 At (1.775 , 0.825 , 0.05 )  Deviation = 0.000308799 Body force = (0 , 0 , 0) 
 At (1.825 , 0.825 , 0.05 )  Deviation = 0.000306272 Body force = (0 , 0 , 0) 
 At (1.875 , 0.825 , 0.05 )  Deviation = 0.000307049 Body force = (0 , 0 , 0) 
 At (1.925 , 0.825 , 0.05 )  Deviation = 0.000304813 Body force = (0 , 0 , 0) 
 At (1.975 , 0.825 , 0.05 )  Deviation = 0.000305494 Body force = (0 , 0 , 0) 
 At (0.025 , 0.875 , 0.05 )  Deviation = 0.000303541 Body force = (0 , 0 , 0) 
 At (0.075 , 0.875 , 0.05 )  Deviation = 0.000304131 Body force = (0 , 0 , 0) 
 At (0.125 , 0.875 , 0.05 )  Deviation = 0.000302447 Body force = (0 , 0 , 0) 
 At (0.175 , 0.875 , 0.05 )  Deviation = 0.000302951 Body force = (0 , 0 , 0) 
 At (0.225 , 0.875 , 0.05 )  Deviation = 0.000301518 Body force = (0 , 0 , 0) 
 At (0.275 , 0.875 , 0.05 )  Deviation = 0.000301943 Body force = (0 , 0 , 0) 
 At (0.325 , 0.875 , 0.05 )  Deviation = 0.000300796 Body force = (0 , 0 , 0) 
 At (0.375 , 0.875 , 0.05 )  Deviation = 0.000301092 Body force = (0 , 0 , 0) 
 At (0.425 , 0.875 , 0.05 )  Deviation = 0.00030024 Body force = (0 , 0 , 0) 
 At (0.475 , 0.875 , 0.05 )  Deviation = 0.0003005 Body force = (0 , 0 , 0) 
 At (0.525 , 0.875 , 0.05 )  Deviation = 0.161975 Body force = (-4.10199 , -25.103 , -0) 
 At (0.575 , 0.875 , 0.05 )  Deviation = 0.150287 Body force = (-3.5348 , -23.343 , -0) 
 At (0.625 , 0.875 , 0.05 )  Deviation = 0.139393 Body force = (-3.04414 , -21.6969 , -0) 
 At (0.675 , 0.875 , 0.05 )  Deviation = 0.129209 Body force = (-2.61969 , -20.162 , -0) 
 At (0.725 , 0.875 , 0.05 )  Deviation = 0.119637 Body force = (-2.25109 , -18.7262 , -0) 
 At (0.775 , 0.875 , 0.05 )  Deviation = 0.110564 Body force = (-1.92736 , -17.361 , -0) 
 At (0.825 , 0.875 , 0.05 )  Deviation = 0.101882 Body force = (-1.64005 , -16.0419 , -0) 
 At (0.875 , 0.875 , 0.05 )  Deviation = 0.0935066 Body force = (-1.38384 , -14.7563 , -0) 
 At (0.925 , 0.875 , 0.05 )  Deviation = 0.0853878 Body force = (-1.15557 , -13.5003 , -0) 
 At (0.975 , 0.875 , 0.05 )  Deviation = 0.0775054 Body force = (-0.953254 , -12.2746 , -0) 
 At (1.025 , 0.875 , 0.05 )  Deviation = 0.0698667 Body force = (-0.775574 , -11.0827 , -0) 
 At (1.075 , 0.875 , 0.05 )  Deviation = 0.0625016 Body force = (-0.621487 , -9.9306 , -0) 
 At (1.125 , 0.875 , 0.05 )  Deviation = 0.0554551 Body force = (-0.489942 , -8.82586 , -0) 
 At (1.175 , 0.875 , 0.05 )  Deviation = 0.04878 Body force = (-0.379659 , -7.7769 , -0) 
 At (1.225 , 0.875 , 0.05 )  Deviation = 0.0425286 Body force = (-0.289029 , -6.79201 , -0) 
 At (1.275 , 0.875 , 0.05 )  Deviation = 0.0367458 Body force = (-0.216108 , -5.87851 , -0) 
 At (1.325 , 0.875 , 0.05 )  Deviation = 0.0314653 Body force = (-0.1587 , -5.042 , -0) 
 At (1.375 , 0.875 , 0.05 )  Deviation = 0.0267057 Body force = (-0.114485 , -4.28589 , -0) 
 At (1.425 , 0.875 , 0.05 )  Deviation = 0.0224704 Body force = (-0.0811606 , -3.61128 , -0) 
 At (1.475 , 0.875 , 0.05 )  Deviation = 0.0187485 Body force = (-0.0565699 , -3.01695 , -0) 
 At (1.525 , 0.875 , 0.05 )  Deviation = 0.000349942 Body force = (0 , 0 , 0) 
 At (1.575 , 0.875 , 0.05 )  Deviation = 0.00034994 Body force = (0 , 0 , 0) 
 At (1.625 , 0.875 , 0.05 )  Deviation = 0.000349941 Body force = (0 , 0 , 0) 
 At (1.675 , 0.875 , 0.05 )  Deviation = 0.000349939 Body force = (0 , 0 , 0) 
 At (1.725 , 0.875 , 0.05 )  Deviation = 0.000349939 Body force = (0 , 0 , 0) 
 At (1.775 , 0.875 , 0.05 )  Deviation = 0.000349938 Body force = (0 , 0 , 0) 
 At (1.825 , 0.875 , 0.05 )  Deviation = 0.000349938 Body force = (0 , 0 , 0) 
 At (1.875 , 0.875 , 0.05 )  Deviation = 0.000349937 Body force = (0 , 0 , 0) 
 At (1.925 , 0.875 , 0.05 )  Deviation = 0.000349938 Body force = (0 , 0 , 0) 
 At (1.975 , 0.875 , 0.05 )  Deviation = 0.000349936 Body force = (0 , 0 , 0) 
 At (0.025 , 0.925 , 0.05 )  Deviation = 0.000349937 Body force = (0 , 0 , 0) 
 At (0.075 , 0.925 , 0.05 )  Deviation = 0.000349932 Body force = (0 , 0 , 0) 
 At (0.125 , 0.925 , 0.05 )  Deviation = 0.000349935 Body force = (0 , 0 , 0) 
 At (0.175 , 0.925 , 0.05 )  Deviation = 0.000349927 Body force = (0 , 0 , 0) 
 At (0.225 , 0.925 , 0.05 )  Deviation = 0.00034993 Body force = (0 , 0 , 0) 
 At (0.275 , 0.925 , 0.05 )  Deviation = 0.000347754 Body force = (0 , 0 , 0) 
 At (0.325 , 0.925 , 0.05 )  Deviation = 0.000349925 Body force = (0 , 0 , 0) 
 At (0.375 , 0.925 , 0.05 )  Deviation = 0.000343607 Body force = (0 , 0 , 0) 
 At (0.425 , 0.925 , 0.05 )  Deviation = 0.000345583 Body force = (0 , 0 , 0) 
 At (0.475 , 0.925 , 0.05 )  Deviation = 0.000339818 Body force = (0 , 0 , 0) 
 At (0.525 , 0.925 , 0.05 )  Deviation = 0.161975 Body force = (-4.10199 , -25.103 , -0) 
 At (0.575 , 0.925 , 0.05 )  Deviation = 0.150289 Body force = (-3.53488 , -23.3433 , -0) 
 At (0.625 , 0.925 , 0.05 )  Deviation = 0.139396 Body force = (-3.04426 , -21.6973 , -0) 
 At (0.675 , 0.925 , 0.05 )  Deviation = 0.129211 Body force = (-2.61981 , -20.1624 , -0) 
 At (0.725 , 0.925 , 0.05 )  Deviation = 0.119639 Body force = (-2.25116 , -18.7265 , -0) 
 At (0.775 , 0.925 , 0.05 )  Deviation = 0.110565 Body force = (-1.92739 , -17.3612 , -0) 
 At (0.825 , 0.925 , 0.05 )  Deviation = 0.101882 Body force = (-1.64005 , -16.0419 , -0) 
 At (0.875 , 0.925 , 0.05 )  Deviation = 0.0935064 Body force = (-1.38384 , -14.7563 , -0) 
 At (0.925 , 0.925 , 0.05 )  Deviation = 0.0853879 Body force = (-1.15557 , -13.5003 , -0) 
 At (0.975 , 0.925 , 0.05 )  Deviation = 0.077506 Body force = (-0.953268 , -12.2746 , -0) 
 At (1.025 , 0.925 , 0.05 )  Deviation = 0.0698677 Body force = (-0.775596 , -11.0828 , -0) 
 At (1.075 , 0.925 , 0.05 )  Deviation = 0.0625028 Body force = (-0.621512 , -9.93079 , -0) 
 At (1.125 , 0.925 , 0.05 )  Deviation = 0.0554564 Body force = (-0.489963 , -8.82605 , -0) 
 At (1.175 , 0.925 , 0.05 )  Deviation = 0.0487811 Body force = (-0.379675 , -7.77706 , -0) 
 At (1.225 , 0.925 , 0.05 )  Deviation = 0.0425293 Body force = (-0.289039 , -6.79213 , -0) 
 At (1.275 , 0.925 , 0.05 )  Deviation = 0.0367462 Body force = (-0.216113 , -5.87858 , -0) 
 At (1.325 , 0.925 , 0.05 )  Deviation = 0.0314654 Body force = (-0.158701 , -5.04201 , -0) 
 At (1.375 , 0.925 , 0.05 )  Deviation = 0.0267054 Body force = (-0.114483 , -4.28586 , -0) 
 At (1.425 , 0.925 , 0.05 )  Deviation = 0.0224699 Body force = (-0.0811574 , -3.61121 , -0) 
 At (1.475 , 0.925 , 0.05 )  Deviation = 0.0187479 Body force = (-0.0565663 , -3.01685 , -0) 
 At (1.525 , 0.925 , 0.05 )  Deviation = 0.000312858 Body force = (0 , 0 , 0) 
 At (1.575 , 0.925 , 0.05 )  Deviation = 0.000309768 Body force = (0 , 0 , 0) 
 At (1.625 , 0.925 , 0.05 )  Deviation = 0.000310738 Body force = (0 , 0 , 0) 
 At (1.675 , 0.925 , 0.05 )  Deviation = 0.000307924 Body force = (0 , 0 , 0) 
 At (1.725 , 0.925 , 0.05 )  Deviation = 0.000308799 Body force = (0 , 0 , 0) 
 At (1.775 , 0.925 , 0.05 )  Deviation = 0.000306272 Body force = (0 , 0 , 0) 
 At (1.825 , 0.925 , 0.05 )  Deviation = 0.000307049 Body force = (0 , 0 , 0) 
 At (1.875 , 0.925 , 0.05 )  Deviation = 0.000304813 Body force = (0 , 0 , 0) 
 At (1.925 , 0.925 , 0.05 )  Deviation = 0.000305494 Body force = (0 , 0 , 0) 
 At (1.975 , 0.925 , 0.05 )  Deviation = 0.000303541 Body force = (0 , 0 , 0) 
 At (0.025 , 0.975 , 0.05 )  Deviation = 0.000304131 Body force = (0 , 0 , 0) 
 At (0.075 , 0.975 , 0.05 )  Deviation = 0.000302447 Body force = (0 , 0 , 0) 
 At (0.125 , 0.975 , 0.05 )  Deviation = 0.000302951 Body force = (0 , 0 , 0) 
 At (0.175 , 0.975 , 0.05 )  Deviation = 0.000301518 Body force = (0 , 0 , 0) 
 At (0.225 , 0.975 , 0.05 )  Deviation = 0.000301943 Body force = (0 , 0 , 0) 
 At (0.275 , 0.975 , 0.05 )  Deviation = 0.000300796 Body force = (0 , 0 , 0) 
 At (0.325 , 0.975 , 0.05 )  Deviation = 0.000301092 Body force = (0 , 0 , 0) 
 At (0.375 , 0.975 , 0.05 )  Deviation = 0.000300241 Body force = (0 , 0 , 0) 
 At (0.425 , 0.975 , 0.05 )  Deviation = 0.000300501 Body force = (0 , 0 , 0) 
 At (0.475 , 0.975 , 0.05 )  Deviation = 0.000299756 Body force = (0 , 0 , 0) 
 At (0.525 , 0.975 , 0.05 )  Deviation = 0.161973 Body force = (-4.10192 , -25.1028 , -0) 
 At (0.575 , 0.975 , 0.05 )  Deviation = 0.15029 Body force = (-3.53497 , -23.3436 , -0) 
 At (0.625 , 0.975 , 0.05 )  Deviation = 0.1394 Body force = (-3.04445 , -21.698 , -0) 
 At (0.675 , 0.975 , 0.05 )  Deviation = 0.129217 Body force = (-2.62001 , -20.1631 , -0) 
 At (0.725 , 0.975 , 0.05 )  Deviation = 0.119643 Body force = (-2.25131 , -18.7271 , -0) 
 At (0.775 , 0.975 , 0.05 )  Deviation = 0.110567 Body force = (-1.92747 , -17.3615 , -0) 
 At (0.825 , 0.975 , 0.05 )  Deviation = 0.101883 Body force = (-1.64008 , -16.042 , -0) 
 At (0.875 , 0.975 , 0.05 )  Deviation = 0.0935068 Body force = (-1.38385 , -14.7563 , -0) 
 At (0.925 , 0.975 , 0.05 )  Deviation = 0.0853884 Body force = (-1.15559 , -13.5004 , -0) 
 At (0.975 , 0.975 , 0.05 )  Deviation = 0.0775068 Body force = (-0.95329 , -12.2748 , -0) 
 At (1.025 , 0.975 , 0.05 )  Deviation = 0.069869 Body force = (-0.775623 , -11.083 , -0) 
 At (1.075 , 0.975 , 0.05 )  Deviation = 0.0625042 Body force = (-0.62154 , -9.93101 , -0) 
 At (1.125 , 0.975 , 0.05 )  Deviation = 0.0554577 Body force = (-0.489987 , -8.82627 , -0) 
 At (1.175 , 0.975 , 0.05 )  Deviation = 0.0487822 Body force = (-0.379692 , -7.77724 , -0) 
 At (1.225 , 0.975 , 0.05 )  Deviation = 0.0425301 Body force = (-0.289049 , -6.79225 , -0) 
 At (1.275 , 0.975 , 0.05 )  Deviation = 0.0367467 Body force = (-0.216118 , -5.87864 , -0) 
 At (1.325 , 0.975 , 0.05 )  Deviation = 0.0314655 Body force = (-0.158702 , -5.04202 , -0) 
 At (1.375 , 0.975 , 0.05 )  Deviation = 0.0267053 Body force = (-0.114481 , -4.28583 , -0) 
 At (1.425 , 0.975 , 0.05 )  Deviation = 0.0224695 Body force = (-0.0811545 , -3.61115 , -0) 
 At (1.475 , 0.975 , 0.05 )  Deviation = 0.0187473 Body force = (-0.0565629 , -3.01677 , -0) 
 At (1.525 , 0.975 , 0.05 )  Deviation = 0.00034994 Body force = (0 , 0 , 0) 
 At (1.575 , 0.975 , 0.05 )  Deviation = 0.000349941 Body force = (0 , 0 , 0) 
 At (1.625 , 0.975 , 0.05 )  Deviation = 0.000349939 Body force = (0 , 0 , 0) 
 At (1.675 , 0.975 , 0.05 )  Deviation = 0.000349939 Body force = (0 , 0 , 0) 
 At (1.725 , 0.975 , 0.05 )  Deviation = 0.000349938 Body force = (0 , 0 , 0) 
 At (1.775 , 0.975 , 0.05 )  Deviation = 0.000349938 Body force = (0 , 0 , 0) 
 At (1.825 , 0.975 , 0.05 )  Deviation = 0.000349937 Body force = (0 , 0 , 0) 
 At (1.875 , 0.975 , 0.05 )  Deviation = 0.000349938 Body force = (0 , 0 , 0) 
 At (1.925 , 0.975 , 0.05 )  Deviation = 0.000349936 Body force = (0 , 0 , 0) 
 At (1.975 , 0.975 , 0.05 )  Deviation = 0.000349937 Body force = (0 , 0 , 0) 
**codeSetValue**
smoothSolver:  Solving for Ux, Initial residual = 0.307294, Final residual = 0.00839103, No Iterations 2
smoothSolver:  Solving for Uy, Initial residual = 0.0198489, Final residual = 0.000968383, No Iterations 2
**codeCorrect**
GAMG:  Solving for p, Initial residual = 0.24379, Final residual = 0.00833959, No Iterations 2
time step continuity errors : sum local = 0.000801417, global = 5.70918e-05, cumulative = 0.000305442
**codeCorrect**
ExecutionTime = 3.36 s  ClockTime = 30 s

Time = 151

**codeSetValue**
smoothSolver:  Solving for Ux, Initial residual = 0.289214, Final residual = 0.00761337, No Iterations 2
smoothSolver:  Solving for Uy, Initial residual = 0.0178288, Final residual = 0.000849402, No Iterations 2
**codeCorrect**
GAMG:  Solving for p, Initial residual = 0.24431, Final residual = 0.0108465, No Iterations 2
time step continuity errors : sum local = 0.000950822, global = -0.000275108, cumulative = 3.03344e-05
**codeCorrect**
ExecutionTime = 3.37 s  ClockTime = 30 s

Time = 152

**codeSetValue**
smoothSolver:  Solving for Ux, Initial residual = 0.294387, Final residual = 0.00661963, No Iterations 2
smoothSolver:  Solving for Uy, Initial residual = 0.0159295, Final residual = 0.000728607, No Iterations 2
**codeCorrect**
GAMG:  Solving for p, Initial residual = 0.200577, Final residual = 0.00987298, No Iterations 2
time step continuity errors : sum local = 0.000947356, global = -0.000214184, cumulative = -0.00018385
**codeCorrect**
ExecutionTime = 3.37 s  ClockTime = 30 s

Time = 153

**codeSetValue**
smoothSolver:  Solving for Ux, Initial residual = 0.278901, Final residual = 0.00753131, No Iterations 2
smoothSolver:  Solving for Uy, Initial residual = 0.0140095, Final residual = 0.000607093, No Iterations 2
**codeCorrect**
GAMG:  Solving for p, Initial residual = 0.159098, Final residual = 0.00508919, No Iterations 2
time step continuity errors : sum local = 0.000576829, global = -4.58415e-05, cumulative = -0.000229691
**codeCorrect**
ExecutionTime = 3.39 s  ClockTime = 30 s

Time = 154

**codeSetValue**
smoothSolver:  Solving for Ux, Initial residual = 0.269205, Final residual = 0.00703849, No Iterations 2
smoothSolver:  Solving for Uy, Initial residual = 0.0120285, Final residual = 0.000489411, No Iterations 2
**codeCorrect**
GAMG:  Solving for p, Initial residual = 0.135678, Final residual = 0.00479739, No Iterations 2
time step continuity errors : sum local = 0.000570502, global = 0.000175797, cumulative = -5.38937e-05
**codeCorrect**
ExecutionTime = 3.39 s  ClockTime = 30 s

Time = 155

**codeSetValue**
smoothSolver:  Solving for Ux, Initial residual = 0.285706, Final residual = 0.00665627, No Iterations 2
smoothSolver:  Solving for Uy, Initial residual = 0.0100536, Final residual = 0.00038157, No Iterations 2
**codeCorrect**
GAMG:  Solving for p, Initial residual = 0.132293, Final residual = 0.00557067, No Iterations 2
time step continuity errors : sum local = 0.000629509, global = 0.000182666, cumulative = 0.000128772
**codeCorrect**
ExecutionTime = 3.39 s  ClockTime = 30 s

Time = 156

**codeSetValue**
smoothSolver:  Solving for Ux, Initial residual = 0.270851, Final residual = 0.00717395, No Iterations 2
smoothSolver:  Solving for Uy, Initial residual = 0.00817331, Final residual = 0.000288738, No Iterations 2
**codeCorrect**
GAMG:  Solving for p, Initial residual = 0.140512, Final residual = 0.0039661, No Iterations 2
time step continuity errors : sum local = 0.000405955, global = 4.38632e-05, cumulative = 0.000172636
**codeCorrect**
ExecutionTime = 3.4 s  ClockTime = 30 s

Time = 157

**codeSetValue**
smoothSolver:  Solving for Ux, Initial residual = 0.241163, Final residual = 0.00688044, No Iterations 2
smoothSolver:  Solving for Uy, Initial residual = 0.00646564, Final residual = 0.000212943, No Iterations 2
**codeCorrect**
GAMG:  Solving for p, Initial residual = 0.127531, Final residual = 0.00427486, No Iterations 2
time step continuity errors : sum local = 0.000424906, global = -0.000144444, cumulative = 2.81919e-05
**codeCorrect**
ExecutionTime = 3.4 s  ClockTime = 30 s

Time = 158

**codeSetValue**
smoothSolver:  Solving for Ux, Initial residual = 0.259075, Final residual = 0.00640731, No Iterations 2
smoothSolver:  Solving for Uy, Initial residual = 0.00497021, Final residual = 0.000153135, No Iterations 2
**codeCorrect**
GAMG:  Solving for p, Initial residual = 0.111031, Final residual = 0.00517773, No Iterations 2
time step continuity errors : sum local = 0.00052747, global = -0.000174016, cumulative = -0.000145824
**codeCorrect**
ExecutionTime = 3.42 s  ClockTime = 30 s

Time = 159

**codeSetValue**
smoothSolver:  Solving for Ux, Initial residual = 0.256643, Final residual = 0.00668577, No Iterations 2
smoothSolver:  Solving for Uy, Initial residual = 0.00370273, Final residual = 0.000107193, No Iterations 2
**codeCorrect**
GAMG:  Solving for p, Initial residual = 0.101676, Final residual = 0.00294295, No Iterations 2
time step continuity errors : sum local = 0.000318401, global = -6.9718e-05, cumulative = -0.000215542
**codeCorrect**
ExecutionTime = 3.42 s  ClockTime = 30 s

Time = 160

 At (0.025 , 0.025 , 0.05 )  Deviation = 6.90799e-310 Body force = (0 , 0 , 0) 
 At (0.075 , 0.025 , 0.05 )  Deviation = 6.90799e-310 Body force = (0 , 0 , 0) 
 At (0.125 , 0.025 , 0.05 )  Deviation = 5.79125e-317 Body force = (0 , 0 , 0) 
 At (0.175 , 0.025 , 0.05 )  Deviation = 5.79125e-317 Body force = (0 , 0 , 0) 
[...]
 At (0.675 , 0.725 , 0.05 )  Deviation = 0.12938 Body force = (-2.62758 , -20.1955 , -0) 
 At (0.725 , 0.725 , 0.05 )  Deviation = 0.120016 Body force = (-2.2639 , -18.7726 , -0) 
 At (0.775 , 0.725 , 0.05 )  Deviation = 0.111322 Body force = (-1.9504 , -17.4479 , -0) 
 At (0.825 , 0.725 , 0.05 )  Deviation = 0.103252 Body force = (-1.68017 , -16.2147 , -0) 
 At (0.875 , 0.725 , 0.05 )  Deviation = 0.095761 Body force = (-1.44722 , -15.0666 , -0) 
 At (0.925 , 0.725 , 0.05 )  Deviation = 0.0888094 Body force = (-1.24642 , -13.9978 , -0) 
 At (0.975 , 0.725 , 0.05 )  Deviation = 0.082359 Body force = (-1.07337 , -13.0033 , -0) 
 At (1.025 , 0.725 , 0.05 )  Deviation = 0.0763746 Body force = (-0.924247 , -12.078 , -0) 
 At (1.075 , 0.725 , 0.05 )  Deviation = 0.070823 Body force = (-0.795767 , -11.2172 , -0) 
 At (1.125 , 0.725 , 0.05 )  Deviation = 0.0656733 Body force = (-0.685082 , -10.4167 , -0) 
 At (1.175 , 0.725 , 0.05 )  Deviation = 0.0608967 Body force = (-0.58974 , -9.67229 , -0) 
 At (1.225 , 0.725 , 0.05 )  Deviation = 0.0564666 Body force = (-0.507624 , -8.98024 , -0) 
 At (1.275 , 0.725 , 0.05 )  Deviation = 0.052358 Body force = (-0.436906 , -8.33695 , -0) 
 At (1.325 , 0.725 , 0.05 )  Deviation = 0.0485478 Body force = (-0.376011 , -7.73909 , -0) 
 At (1.375 , 0.725 , 0.05 )  Deviation = 0.0450143 Body force = (-0.32358 , -7.18351 , -0) 
 At (1.425 , 0.725 , 0.05 )  Deviation = 0.0417379 Body force = (-0.278445 , -6.66739 , -0) 
 At (1.475 , 0.725 , 0.05 )  Deviation = 0.0386973 Body force = (-0.239551 , -6.18728 , -0) 
 At (1.525 , 0.725 , 0.05 )  Deviation = 1.56421e-05 Body force = (0 , 0 , 0) 
 At (1.575 , 0.725 , 0.05 )  Deviation = 1.55572e-05 Body force = (0 , 0 , 0) 
 At (1.625 , 0.725 , 0.05 )  Deviation = 1.5584e-05 Body force = (0 , 0 , 0) 
 At (1.675 , 0.725 , 0.05 )  Deviation = 1.55058e-05 Body force = (0 , 0 , 0) 
 At (1.725 , 0.725 , 0.05 )  Deviation = 1.55305e-05 Body force = (0 , 0 , 0) 
 At (1.775 , 0.725 , 0.05 )  Deviation = 1.54584e-05 Body force = (0 , 0 , 0) 
 At (1.825 , 0.725 , 0.05 )  Deviation = 1.54811e-05 Body force = (0 , 0 , 0) 
 At (1.875 , 0.725 , 0.05 )  Deviation = 1.54146e-05 Body force = (0 , 0 , 0) 
 At (1.925 , 0.725 , 0.05 )  Deviation = 1.54356e-05 Body force = (0 , 0 , 0) 
 At (1.975 , 0.725 , 0.05 )  Deviation = 1.53936e-05 Body force = (0 , 0 , 0) 
 At (0.025 , 0.775 , 0.05 )  Deviation = 1.53936e-05 Body force = (0 , 0 , 0) 
 At (0.075 , 0.775 , 0.05 )  Deviation = 1.53936e-05 Body force = (0 , 0 , 0) 
 At (0.125 , 0.775 , 0.05 )  Deviation = 1.53936e-05 Body force = (0 , 0 , 0) 
 At (0.175 , 0.775 , 0.05 )  Deviation = 1.53936e-05 Body force = (0 , 0 , 0) 
 At (0.225 , 0.775 , 0.05 )  Deviation = 1.53936e-05 Body force = (0 , 0 , 0) 
 At (0.275 , 0.775 , 0.05 )  Deviation = 1.53936e-05 Body force = (0 , 0 , 0) 
 At (0.325 , 0.775 , 0.05 )  Deviation = 1.53936e-05 Body force = (0 , 0 , 0) 
 At (0.375 , 0.775 , 0.05 )  Deviation = 1.53936e-05 Body force = (0 , 0 , 0) 
 At (0.425 , 0.775 , 0.05 )  Deviation = 1.53936e-05 Body force = (0 , 0 , 0) 
 At (0.475 , 0.775 , 0.05 )  Deviation = 1.53936e-05 Body force = (0 , 0 , 0) 
 At (0.525 , 0.775 , 0.05 )  Deviation = 0.161979 Body force = (-4.10165 , -25.1002 , -0) 
 At (0.575 , 0.775 , 0.05 )  Deviation = 0.150308 Body force = (-3.53663 , -23.3517 , -0) 
 At (0.625 , 0.775 , 0.05 )  Deviation = 0.139461 Body force = (-3.04906 , -21.7213 , -0) 
 At (0.675 , 0.775 , 0.05 )  Deviation = 0.12938 Body force = (-2.62758 , -20.1955 , -0) 
 At (0.725 , 0.775 , 0.05 )  Deviation = 0.120016 Body force = (-2.2639 , -18.7726 , -0) 
 At (0.775 , 0.775 , 0.05 )  Deviation = 0.111322 Body force = (-1.9504 , -17.4479 , -0) 
 At (0.825 , 0.775 , 0.05 )  Deviation = 0.103252 Body force = (-1.68017 , -16.2147 , -0) 
 At (0.875 , 0.775 , 0.05 )  Deviation = 0.095761 Body force = (-1.44722 , -15.0666 , -0) 
 At (0.925 , 0.775 , 0.05 )  Deviation = 0.0888094 Body force = (-1.24642 , -13.9978 , -0) 
 At (0.975 , 0.775 , 0.05 )  Deviation = 0.082359 Body force = (-1.07337 , -13.0033 , -0) 
 At (1.025 , 0.775 , 0.05 )  Deviation = 0.0763746 Body force = (-0.924247 , -12.078 , -0) 
 At (1.075 , 0.775 , 0.05 )  Deviation = 0.070823 Body force = (-0.795767 , -11.2172 , -0) 
 At (1.125 , 0.775 , 0.05 )  Deviation = 0.0656733 Body force = (-0.685082 , -10.4167 , -0) 
 At (1.175 , 0.775 , 0.05 )  Deviation = 0.0608967 Body force = (-0.58974 , -9.67229 , -0) 
 At (1.225 , 0.775 , 0.05 )  Deviation = 0.0564666 Body force = (-0.507624 , -8.98024 , -0) 
 At (1.275 , 0.775 , 0.05 )  Deviation = 0.052358 Body force = (-0.436906 , -8.33695 , -0) 
 At (1.325 , 0.775 , 0.05 )  Deviation = 0.0485478 Body force = (-0.376011 , -7.73909 , -0) 
 At (1.375 , 0.775 , 0.05 )  Deviation = 0.0450143 Body force = (-0.32358 , -7.18351 , -0) 
 At (1.425 , 0.775 , 0.05 )  Deviation = 0.0417379 Body force = (-0.278445 , -6.66739 , -0) 
 At (1.475 , 0.775 , 0.05 )  Deviation = 0.0386973 Body force = (-0.239551 , -6.18728 , -0) 
 At (1.525 , 0.775 , 0.05 )  Deviation = 1.74972e-05 Body force = (0 , 0 , 0) 
 At (1.575 , 0.775 , 0.05 )  Deviation = 1.74972e-05 Body force = (0 , 0 , 0) 
 At (1.625 , 0.775 , 0.05 )  Deviation = 1.74972e-05 Body force = (0 , 0 , 0) 
 At (1.675 , 0.775 , 0.05 )  Deviation = 1.74972e-05 Body force = (0 , 0 , 0) 
 At (1.725 , 0.775 , 0.05 )  Deviation = 1.74972e-05 Body force = (0 , 0 , 0) 
 At (1.775 , 0.775 , 0.05 )  Deviation = 1.74972e-05 Body force = (0 , 0 , 0) 
 At (1.825 , 0.775 , 0.05 )  Deviation = 1.74972e-05 Body force = (0 , 0 , 0) 
 At (1.875 , 0.775 , 0.05 )  Deviation = 1.74972e-05 Body force = (0 , 0 , 0) 
 At (1.925 , 0.775 , 0.05 )  Deviation = 1.73888e-05 Body force = (0 , 0 , 0) 
 At (1.975 , 0.775 , 0.05 )  Deviation = 1.74972e-05 Body force = (0 , 0 , 0) 
 At (0.025 , 0.825 , 0.05 )  Deviation = 1.71819e-05 Body force = (0 , 0 , 0) 
 At (0.075 , 0.825 , 0.05 )  Deviation = 1.72804e-05 Body force = (0 , 0 , 0) 
 At (0.125 , 0.825 , 0.05 )  Deviation = 1.69938e-05 Body force = (0 , 0 , 0) 
 At (0.175 , 0.825 , 0.05 )  Deviation = 1.70834e-05 Body force = (0 , 0 , 0) 
 At (0.225 , 0.825 , 0.05 )  Deviation = 1.68225e-05 Body force = (0 , 0 , 0) 
 At (0.275 , 0.825 , 0.05 )  Deviation = 1.69042e-05 Body force = (0 , 0 , 0) 
 At (0.325 , 0.825 , 0.05 )  Deviation = 1.66664e-05 Body force = (0 , 0 , 0) 
 At (0.375 , 0.825 , 0.05 )  Deviation = 1.67409e-05 Body force = (0 , 0 , 0) 
 At (0.425 , 0.825 , 0.05 )  Deviation = 1.65239e-05 Body force = (0 , 0 , 0) 
 At (0.475 , 0.825 , 0.05 )  Deviation = 1.65919e-05 Body force = (0 , 0 , 0) 
 At (0.525 , 0.825 , 0.05 )  Deviation = 0.161979 Body force = (-4.10165 , -25.1002 , -0) 
 At (0.575 , 0.825 , 0.05 )  Deviation = 0.150308 Body force = (-3.53663 , -23.3517 , -0) 
 At (0.625 , 0.825 , 0.05 )  Deviation = 0.139461 Body force = (-3.04906 , -21.7213 , -0) 
 At (0.675 , 0.825 , 0.05 )  Deviation = 0.12938 Body force = (-2.62758 , -20.1955 , -0) 
 At (0.725 , 0.825 , 0.05 )  Deviation = 0.120016 Body force = (-2.2639 , -18.7726 , -0) 
 At (0.775 , 0.825 , 0.05 )  Deviation = 0.111322 Body force = (-1.9504 , -17.4479 , -0) 
 At (0.825 , 0.825 , 0.05 )  Deviation = 0.103252 Body force = (-1.68017 , -16.2147 , -0) 
 At (0.875 , 0.825 , 0.05 )  Deviation = 0.095761 Body force = (-1.44722 , -15.0666 , -0) 
 At (0.925 , 0.825 , 0.05 )  Deviation = 0.0888094 Body force = (-1.24642 , -13.9978 , -0) 
 At (0.975 , 0.825 , 0.05 )  Deviation = 0.082359 Body force = (-1.07337 , -13.0033 , -0) 
 At (1.025 , 0.825 , 0.05 )  Deviation = 0.0763746 Body force = (-0.924247 , -12.078 , -0) 
 At (1.075 , 0.825 , 0.05 )  Deviation = 0.070823 Body force = (-0.795767 , -11.2172 , -0) 
 At (1.125 , 0.825 , 0.05 )  Deviation = 0.0656733 Body force = (-0.685082 , -10.4167 , -0) 
 At (1.175 , 0.825 , 0.05 )  Deviation = 0.0608967 Body force = (-0.58974 , -9.67229 , -0) 
 At (1.225 , 0.825 , 0.05 )  Deviation = 0.0564666 Body force = (-0.507624 , -8.98024 , -0) 
 At (1.275 , 0.825 , 0.05 )  Deviation = 0.052358 Body force = (-0.436906 , -8.33695 , -0) 
 At (1.325 , 0.825 , 0.05 )  Deviation = 0.0485478 Body force = (-0.376011 , -7.73909 , -0) 
 At (1.375 , 0.825 , 0.05 )  Deviation = 0.0450143 Body force = (-0.32358 , -7.18351 , -0) 
 At (1.425 , 0.825 , 0.05 )  Deviation = 0.0417379 Body force = (-0.278445 , -6.66739 , -0) 
 At (1.475 , 0.825 , 0.05 )  Deviation = 0.0386973 Body force = (-0.239551 , -6.18728 , -0) 
 At (1.525 , 0.825 , 0.05 )  Deviation = 1.55572e-05 Body force = (0 , 0 , 0) 
 At (1.575 , 0.825 , 0.05 )  Deviation = 1.5584e-05 Body force = (0 , 0 , 0) 
 At (1.625 , 0.825 , 0.05 )  Deviation = 1.55058e-05 Body force = (0 , 0 , 0) 
 At (1.675 , 0.825 , 0.05 )  Deviation = 1.55305e-05 Body force = (0 , 0 , 0) 
 At (1.725 , 0.825 , 0.05 )  Deviation = 1.54584e-05 Body force = (0 , 0 , 0) 
 At (1.775 , 0.825 , 0.05 )  Deviation = 1.54811e-05 Body force = (0 , 0 , 0) 
 At (1.825 , 0.825 , 0.05 )  Deviation = 1.54146e-05 Body force = (0 , 0 , 0) 
 At (1.875 , 0.825 , 0.05 )  Deviation = 1.54356e-05 Body force = (0 , 0 , 0) 
 At (1.925 , 0.825 , 0.05 )  Deviation = 1.53936e-05 Body force = (0 , 0 , 0) 
 At (1.975 , 0.825 , 0.05 )  Deviation = 1.53936e-05 Body force = (0 , 0 , 0) 
 At (0.025 , 0.875 , 0.05 )  Deviation = 1.53936e-05 Body force = (0 , 0 , 0) 
 At (0.075 , 0.875 , 0.05 )  Deviation = 1.53936e-05 Body force = (0 , 0 , 0) 
 At (0.125 , 0.875 , 0.05 )  Deviation = 1.53936e-05 Body force = (0 , 0 , 0) 
 At (0.175 , 0.875 , 0.05 )  Deviation = 1.53936e-05 Body force = (0 , 0 , 0) 
 At (0.225 , 0.875 , 0.05 )  Deviation = 1.53936e-05 Body force = (0 , 0 , 0) 
 At (0.275 , 0.875 , 0.05 )  Deviation = 1.53936e-05 Body force = (0 , 0 , 0) 
 At (0.325 , 0.875 , 0.05 )  Deviation = 1.53936e-05 Body force = (0 , 0 , 0) 
 At (0.375 , 0.875 , 0.05 )  Deviation = 1.53936e-05 Body force = (0 , 0 , 0) 
 At (0.425 , 0.875 , 0.05 )  Deviation = 1.53936e-05 Body force = (0 , 0 , 0) 
 At (0.475 , 0.875 , 0.05 )  Deviation = 1.53936e-05 Body force = (0 , 0 , 0) 
 At (0.525 , 0.875 , 0.05 )  Deviation = 0.161979 Body force = (-4.10165 , -25.1002 , -0) 
 At (0.575 , 0.875 , 0.05 )  Deviation = 0.150308 Body force = (-3.53663 , -23.3517 , -0) 
 At (0.625 , 0.875 , 0.05 )  Deviation = 0.139461 Body force = (-3.04906 , -21.7213 , -0) 
 At (0.675 , 0.875 , 0.05 )  Deviation = 0.12938 Body force = (-2.62758 , -20.1955 , -0) 
 At (0.725 , 0.875 , 0.05 )  Deviation = 0.120016 Body force = (-2.2639 , -18.7726 , -0) 
 At (0.775 , 0.875 , 0.05 )  Deviation = 0.111322 Body force = (-1.9504 , -17.4479 , -0) 
 At (0.825 , 0.875 , 0.05 )  Deviation = 0.103252 Body force = (-1.68017 , -16.2147 , -0) 
 At (0.875 , 0.875 , 0.05 )  Deviation = 0.095761 Body force = (-1.44722 , -15.0666 , -0) 
 At (0.925 , 0.875 , 0.05 )  Deviation = 0.0888094 Body force = (-1.24642 , -13.9978 , -0) 
 At (0.975 , 0.875 , 0.05 )  Deviation = 0.082359 Body force = (-1.07337 , -13.0033 , -0) 
 At (1.025 , 0.875 , 0.05 )  Deviation = 0.0763746 Body force = (-0.924247 , -12.078 , -0) 
 At (1.075 , 0.875 , 0.05 )  Deviation = 0.070823 Body force = (-0.795767 , -11.2172 , -0) 
 At (1.125 , 0.875 , 0.05 )  Deviation = 0.0656733 Body force = (-0.685082 , -10.4167 , -0) 
 At (1.175 , 0.875 , 0.05 )  Deviation = 0.0608967 Body force = (-0.58974 , -9.67229 , -0) 
 At (1.225 , 0.875 , 0.05 )  Deviation = 0.0564666 Body force = (-0.507624 , -8.98024 , -0) 
 At (1.275 , 0.875 , 0.05 )  Deviation = 0.052358 Body force = (-0.436906 , -8.33695 , -0) 
 At (1.325 , 0.875 , 0.05 )  Deviation = 0.0485478 Body force = (-0.376011 , -7.73909 , -0) 
 At (1.375 , 0.875 , 0.05 )  Deviation = 0.0450143 Body force = (-0.32358 , -7.18352 , -0) 
 At (1.425 , 0.875 , 0.05 )  Deviation = 0.0417379 Body force = (-0.278445 , -6.66739 , -0) 
 At (1.475 , 0.875 , 0.05 )  Deviation = 0.0386973 Body force = (-0.239551 , -6.18728 , -0) 
 At (1.525 , 0.875 , 0.05 )  Deviation = 1.69938e-05 Body force = (0 , 0 , 0) 
 At (1.575 , 0.875 , 0.05 )  Deviation = 1.68225e-05 Body force = (0 , 0 , 0) 
 At (1.625 , 0.875 , 0.05 )  Deviation = 1.66664e-05 Body force = (0 , 0 , 0) 
 At (1.675 , 0.875 , 0.05 )  Deviation = 1.65239e-05 Body force = (0 , 0 , 0) 
 At (1.725 , 0.875 , 0.05 )  Deviation = 1.63935e-05 Body force = (0 , 0 , 0) 
 At (1.775 , 0.875 , 0.05 )  Deviation = 1.62743e-05 Body force = (0 , 0 , 0) 
 At (1.825 , 0.875 , 0.05 )  Deviation = 1.6165e-05 Body force = (0 , 0 , 0) 
 At (1.875 , 0.875 , 0.05 )  Deviation = 1.60648e-05 Body force = (0 , 0 , 0) 
 At (1.925 , 0.875 , 0.05 )  Deviation = 1.59729e-05 Body force = (0 , 0 , 0) 
 At (1.975 , 0.875 , 0.05 )  Deviation = 1.58884e-05 Body force = (0 , 0 , 0) 
 At (0.025 , 0.925 , 0.05 )  Deviation = 1.58108e-05 Body force = (0 , 0 , 0) 
 At (0.075 , 0.925 , 0.05 )  Deviation = 1.57393e-05 Body force = (0 , 0 , 0) 
 At (0.125 , 0.925 , 0.05 )  Deviation = 1.56736e-05 Body force = (0 , 0 , 0) 
 At (0.175 , 0.925 , 0.05 )  Deviation = 1.5613e-05 Body force = (0 , 0 , 0) 
 At (0.225 , 0.925 , 0.05 )  Deviation = 1.55572e-05 Body force = (0 , 0 , 0) 
 At (0.275 , 0.925 , 0.05 )  Deviation = 1.55058e-05 Body force = (0 , 0 , 0) 
 At (0.325 , 0.925 , 0.05 )  Deviation = 1.54584e-05 Body force = (0 , 0 , 0) 
 At (0.375 , 0.925 , 0.05 )  Deviation = 1.54146e-05 Body force = (0 , 0 , 0) 
 At (0.425 , 0.925 , 0.05 )  Deviation = 1.53936e-05 Body force = (0 , 0 , 0) 
 At (0.475 , 0.925 , 0.05 )  Deviation = 1.53936e-05 Body force = (0 , 0 , 0) 
 At (0.525 , 0.925 , 0.05 )  Deviation = 0.161979 Body force = (-4.10165 , -25.1002 , -0) 
 At (0.575 , 0.925 , 0.05 )  Deviation = 0.150308 Body force = (-3.53663 , -23.3517 , -0) 
 At (0.625 , 0.925 , 0.05 )  Deviation = 0.139461 Body force = (-3.04906 , -21.7213 , -0) 
 At (0.675 , 0.925 , 0.05 )  Deviation = 0.12938 Body force = (-2.62758 , -20.1955 , -0) 
 At (0.725 , 0.925 , 0.05 )  Deviation = 0.120016 Body force = (-2.2639 , -18.7726 , -0) 
 At (0.775 , 0.925 , 0.05 )  Deviation = 0.111322 Body force = (-1.9504 , -17.4479 , -0) 
 At (0.825 , 0.925 , 0.05 )  Deviation = 0.103252 Body force = (-1.68017 , -16.2147 , -0) 
 At (0.875 , 0.925 , 0.05 )  Deviation = 0.095761 Body force = (-1.44722 , -15.0666 , -0) 
 At (0.925 , 0.925 , 0.05 )  Deviation = 0.0888094 Body force = (-1.24642 , -13.9978 , -0) 
 At (0.975 , 0.925 , 0.05 )  Deviation = 0.082359 Body force = (-1.07337 , -13.0033 , -0) 
 At (1.025 , 0.925 , 0.05 )  Deviation = 0.0763746 Body force = (-0.924247 , -12.078 , -0) 
 At (1.075 , 0.925 , 0.05 )  Deviation = 0.070823 Body force = (-0.795767 , -11.2172 , -0) 
 At (1.125 , 0.925 , 0.05 )  Deviation = 0.0656733 Body force = (-0.685082 , -10.4167 , -0) 
 At (1.175 , 0.925 , 0.05 )  Deviation = 0.0608967 Body force = (-0.58974 , -9.67229 , -0) 
 At (1.225 , 0.925 , 0.05 )  Deviation = 0.0564666 Body force = (-0.507624 , -8.98024 , -0) 
 At (1.275 , 0.925 , 0.05 )  Deviation = 0.052358 Body force = (-0.436906 , -8.33695 , -0) 
 At (1.325 , 0.925 , 0.05 )  Deviation = 0.0485478 Body force = (-0.376011 , -7.73909 , -0) 
 At (1.375 , 0.925 , 0.05 )  Deviation = 0.0450143 Body force = (-0.32358 , -7.18352 , -0) 
 At (1.425 , 0.925 , 0.05 )  Deviation = 0.0417379 Body force = (-0.278445 , -6.66739 , -0) 
 At (1.475 , 0.925 , 0.05 )  Deviation = 0.0386973 Body force = (-0.239551 , -6.18728 , -0) 
 At (1.525 , 0.925 , 0.05 )  Deviation = -2.15078e-19 Body force = (0 , 0 , 0) 
 At (1.575 , 0.925 , 0.05 )  Deviation = 3.47812e-27 Body force = (0 , 0 , 0) 
 At (1.625 , 0.925 , 0.05 )  Deviation = 1.24478e-27 Body force = (0 , 0 , 0) 
 At (1.675 , 0.925 , 0.05 )  Deviation = -1.97282e-19 Body force = (0 , 0 , 0) 
 At (1.725 , 0.925 , 0.05 )  Deviation = -1.63599e-19 Body force = (0 , 0 , 0) 
 At (1.775 , 0.925 , 0.05 )  Deviation = -2.11987e-19 Body force = (0 , 0 , 0) 
 At (1.825 , 0.925 , 0.05 )  Deviation = 6.10044e-20 Body force = (0 , 0 , 0) 
 At (1.875 , 0.925 , 0.05 )  Deviation = -1.42038e-26 Body force = (0 , 0 , 0) 
 At (1.925 , 0.925 , 0.05 )  Deviation = -4.45917e-20 Body force = (0 , 0 , 0) 
 At (1.975 , 0.925 , 0.05 )  Deviation = -3.81504e-20 Body force = (0 , 0 , 0) 
 At (0.025 , 0.975 , 0.05 )  Deviation = 6.53635e-20 Body force = (0 , 0 , 0) 
 At (0.075 , 0.975 , 0.05 )  Deviation = 1.61229e-25 Body force = (0 , 0 , 0) 
 At (0.125 , 0.975 , 0.05 )  Deviation = 4.80066e-20 Body force = (0 , 0 , 0) 
 At (0.175 , 0.975 , 0.05 )  Deviation = 4.11553e-20 Body force = (0 , 0 , 0) 
 At (0.225 , 0.975 , 0.05 )  Deviation = -5.0895e-26 Body force = (0 , 0 , 0) 
 At (0.275 , 0.975 , 0.05 )  Deviation = 1.95886e-26 Body force = (0 , 0 , 0) 
 At (0.325 , 0.975 , 0.05 )  Deviation = -3.32837e-26 Body force = (0 , 0 , 0) 
 At (0.375 , 0.975 , 0.05 )  Deviation = -2.22892e-20 Body force = (0 , 0 , 0) 
 At (0.425 , 0.975 , 0.05 )  Deviation = -7.76977e-20 Body force = (0 , 0 , 0) 
 At (0.475 , 0.975 , 0.05 )  Deviation = 2.7679e-20 Body force = (0 , 0 , 0) 
 At (0.525 , 0.975 , 0.05 )  Deviation = 0.161979 Body force = (-4.10165 , -25.1002 , -0) 
 At (0.575 , 0.975 , 0.05 )  Deviation = 0.150308 Body force = (-3.53663 , -23.3517 , -0) 
 At (0.625 , 0.975 , 0.05 )  Deviation = 0.139461 Body force = (-3.04906 , -21.7213 , -0) 
 At (0.675 , 0.975 , 0.05 )  Deviation = 0.12938 Body force = (-2.62758 , -20.1955 , -0) 
 At (0.725 , 0.975 , 0.05 )  Deviation = 0.120016 Body force = (-2.2639 , -18.7726 , -0) 
 At (0.775 , 0.975 , 0.05 )  Deviation = 0.111322 Body force = (-1.9504 , -17.4479 , -0) 
 At (0.825 , 0.975 , 0.05 )  Deviation = 0.103252 Body force = (-1.68017 , -16.2147 , -0) 
 At (0.875 , 0.975 , 0.05 )  Deviation = 0.095761 Body force = (-1.44722 , -15.0666 , -0) 
 At (0.925 , 0.975 , 0.05 )  Deviation = 0.0888094 Body force = (-1.24642 , -13.9978 , -0) 
 At (0.975 , 0.975 , 0.05 )  Deviation = 0.082359 Body force = (-1.07337 , -13.0033 , -0) 
 At (1.025 , 0.975 , 0.05 )  Deviation = 0.0763746 Body force = (-0.924247 , -12.078 , -0) 
 At (1.075 , 0.975 , 0.05 )  Deviation = 0.070823 Body force = (-0.795767 , -11.2172 , -0) 
 At (1.125 , 0.975 , 0.05 )  Deviation = 0.0656733 Body force = (-0.685082 , -10.4167 , -0) 
 At (1.175 , 0.975 , 0.05 )  Deviation = 0.0608967 Body force = (-0.58974 , -9.67229 , -0) 
 At (1.225 , 0.975 , 0.05 )  Deviation = 0.0564666 Body force = (-0.507624 , -8.98024 , -0) 
 At (1.275 , 0.975 , 0.05 )  Deviation = 0.052358 Body force = (-0.436906 , -8.33695 , -0) 
 At (1.325 , 0.975 , 0.05 )  Deviation = 0.0485478 Body force = (-0.376011 , -7.73909 , -0) 
 At (1.375 , 0.975 , 0.05 )  Deviation = 0.0450143 Body force = (-0.32358 , -7.18352 , -0) 
 At (1.425 , 0.975 , 0.05 )  Deviation = 0.0417379 Body force = (-0.278445 , -6.66739 , -0) 
 At (1.475 , 0.975 , 0.05 )  Deviation = 0.0386974 Body force = (-0.239551 , -6.18728 , -0) 
 At (1.525 , 0.975 , 0.05 )  Deviation = 1.07539e-19 Body force = (0 , 0 , 0) 
 At (1.575 , 0.975 , 0.05 )  Deviation = -1.45967e-19 Body force = (0 , 0 , 0) 
 At (1.625 , 0.975 , 0.05 )  Deviation = -1.25647e-19 Body force = (0 , 0 , 0) 
 At (1.675 , 0.975 , 0.05 )  Deviation = -2.95924e-19 Body force = (0 , 0 , 0) 
 At (1.725 , 0.975 , 0.05 )  Deviation = 3.27198e-19 Body force = (0 , 0 , 0) 
 At (1.775 , 0.975 , 0.05 )  Deviation = -6.90419e-26 Body force = (0 , 0 , 0) 
 At (1.825 , 0.975 , 0.05 )  Deviation = 1.44172e-25 Body force = (0 , 0 , 0) 
 At (1.875 , 0.975 , 0.05 )  Deviation = -8.91392e-26 Body force = (0 , 0 , 0) 
 At (1.925 , 0.975 , 0.05 )  Deviation = 1.17555e-25 Body force = (0 , 0 , 0) 
 At (1.975 , 0.975 , 0.05 )  Deviation = 1.52601e-19 Body force = (0 , 0 , 0) 
**codeSetValue**
smoothSolver:  Solving for Ux, Initial residual = 0.00156758, Final residual = 4.39464e-05, No Iterations 2
smoothSolver:  Solving for Uy, Initial residual = 9.53821e-08, Final residual = 2.52647e-09, No Iterations 2
**codeCorrect**
GAMG:  Solving for p, Initial residual = 0.00012001, Final residual = 9.7219e-06, No Iterations 2
time step continuity errors : sum local = 9.31881e-07, global = -1.16831e-07, cumulative = -1.58128e-05
**codeCorrect**
ExecutionTime = 19.59 s  ClockTime = 48 s

End

