/*---------------------------------------------------------------------------*\
| =========                 |                                                 |
| \\      /  F ield         | OpenFOAM: The Open Source CFD Toolbox           |
|  \\    /   O peration     | Version:  5.x                                   |
|   \\  /    A nd           | Web:      www.OpenFOAM.org                      |
|    \\/     M anipulation  |                                                 |
\*---------------------------------------------------------------------------*/
Build  : 5.x-197d9d3bf20a
Exec   : simpleFoam
Date   : Jan 29 2019
Time   : 21:41:29
Host   : "palak"
PID    : 1907
I/O    : uncollated
Case   : /home/palak/OpenFOAM/palak-5.0/run/Z4curvedlookuptable
nProcs : 1
sigFpe : Enabling floating point exception trapping (FOAM_SIGFPE).
fileModificationChecking : Monitoring run-time modified files using timeStampMaster (fileModificationSkew 10)
allowSystemOperations : Allowing user-supplied system call operations

// * * * * * * * * * * * * * * * * * * * * * * * * * * * * * * * * * * * * * //
Create time

Create mesh for time = 0


SIMPLE: convergence criteria
    field p	 tolerance 0.001
    field U	 tolerance 0.0001
    field "(k|epsilon)"	 tolerance 0.0001

Reading field p

Reading field U

Reading/calculating face flux field phi

Selecting incompressible transport model Newtonian
Selecting turbulence model type laminar
Selecting laminar stress model Stokes
No MRF models present

Creating finite volume options from "constant/fvOptions"

Selecting finite volume options model type vectorCodedSource
    Source: momentumSource
    - selecting all cells
    - selected 800 cell(s) with volume 0.2

Starting time loop

Time = 1

Using dynamicCode for fvOption:: bodyForce at line 25 in "/home/palak/OpenFOAM/palak-5.0/run/Z4curvedlookuptable/constant/fvOptions.momentumSource.vectorCodedSourceCoeffs"
Creating new library in "dynamicCode/bodyForce/platforms/linux64GccDPInt32Opt/lib/libbodyForce_db22fcbc93463f7ae36c97b7d5f3638fe3d8e805.so"
Invoking "wmake -s libso /home/palak/OpenFOAM/palak-5.0/run/Z4curvedlookuptable/dynamicCode/bodyForce"
wmake libso /home/palak/OpenFOAM/palak-5.0/run/Z4curvedlookuptable/dynamicCode/bodyForce
    wmkdep: codedFvOptionTemplate.C
    Ctoo: codedFvOptionTemplate.C
    ld: /home/palak/OpenFOAM/palak-5.0/run/Z4curvedlookuptable/dynamicCode/bodyForce/../platforms/linux64GccDPInt32Opt/lib/libbodyForce_db22fcbc93463f7ae36c97b7d5f3638fe3d8e805.so
Selecting finite volume options model type bodyForce
    Source: bodyForce
    - selecting all cells
    - selected 800 cell(s) with volume 0.2
**codeSetValue**
smoothSolver:  Solving for Ux, Initial residual = 1, Final residual = 0.000189903, No Iterations 1
smoothSolver:  Solving for Uy, Initial residual = 1, Final residual = 0.000190234, No Iterations 1
**codeCorrect**
GAMG:  Solving for p, Initial residual = 1, Final residual = 0.0734954, No Iterations 2
time step continuity errors : sum local = 0.0316853, global = 0.00216998, cumulative = 0.00216998
**codeCorrect**
ExecutionTime = 0.18 s  ClockTime = 37 s

Time = 2

**codeSetValue**
smoothSolver:  Solving for Ux, Initial residual = 0.356996, Final residual = 0.023004, No Iterations 2
smoothSolver:  Solving for Uy, Initial residual = 0.447555, Final residual = 0.0227366, No Iterations 2
**codeCorrect**
GAMG:  Solving for p, Initial residual = 0.0802299, Final residual = 0.00490119, No Iterations 2
time step continuity errors : sum local = 0.00873192, global = 0.000506713, cumulative = 0.00267669
**codeCorrect**
ExecutionTime = 0.19 s  ClockTime = 37 s

Time = 3

**codeSetValue**
smoothSolver:  Solving for Ux, Initial residual = 0.775063, Final residual = 0.0233761, No Iterations 2
smoothSolver:  Solving for Uy, Initial residual = 0.275967, Final residual = 0.00542162, No Iterations 2
**codeCorrect**
GAMG:  Solving for p, Initial residual = 0.120713, Final residual = 0.010854, No Iterations 2
time step continuity errors : sum local = 0.0232489, global = -0.00113531, cumulative = 0.00154138
**codeCorrect**
ExecutionTime = 0.19 s  ClockTime = 38 s

Time = 4

**codeSetValue**
smoothSolver:  Solving for Ux, Initial residual = 0.24744, Final residual = 0.0114472, No Iterations 2
smoothSolver:  Solving for Uy, Initial residual = 0.151577, Final residual = 0.00445143, No Iterations 2
**codeCorrect**
GAMG:  Solving for p, Initial residual = 0.366692, Final residual = 0.0344614, No Iterations 2
time step continuity errors : sum local = 0.0291981, global = -0.00164611, cumulative = -0.000104726
**codeCorrect**
ExecutionTime = 0.21 s  ClockTime = 38 s

Time = 5

**codeSetValue**
smoothSolver:  Solving for Ux, Initial residual = 0.40466, Final residual = 0.0156115, No Iterations 2
smoothSolver:  Solving for Uy, Initial residual = 0.0871283, Final residual = 0.0023779, No Iterations 2
**codeCorrect**
GAMG:  Solving for p, Initial residual = 0.115119, Final residual = 0.00676307, No Iterations 2
time step continuity errors : sum local = 0.0082306, global = 0.00104814, cumulative = 0.000943416
**codeCorrect**
ExecutionTime = 0.23 s  ClockTime = 38 s

Time = 6

**codeSetValue**
smoothSolver:  Solving for Ux, Initial residual = 0.643957, Final residual = 0.0308075, No Iterations 2
smoothSolver:  Solving for Uy, Initial residual = 0.0572051, Final residual = 0.001609, No Iterations 2
**codeCorrect**
GAMG:  Solving for p, Initial residual = 0.111271, Final residual = 0.00999474, No Iterations 2
time step continuity errors : sum local = 0.0137117, global = 0.000979498, cumulative = 0.00192291
**codeCorrect**
ExecutionTime = 0.25 s  ClockTime = 38 s

Time = 7

**codeSetValue**
smoothSolver:  Solving for Ux, Initial residual = 0.338241, Final residual = 0.0116884, No Iterations 2
smoothSolver:  Solving for Uy, Initial residual = 0.0270755, Final residual = 0.000629727, No Iterations 2
**codeCorrect**
GAMG:  Solving for p, Initial residual = 0.348047, Final residual = 0.0331184, No Iterations 2
time step continuity errors : sum local = 0.0175451, global = 0.00123827, cumulative = 0.00316118
**codeCorrect**
ExecutionTime = 0.26 s  ClockTime = 38 s

Time = 8

**codeSetValue**
smoothSolver:  Solving for Ux, Initial residual = 0.3806, Final residual = 0.0144694, No Iterations 2
smoothSolver:  Solving for Uy, Initial residual = 0.0160911, Final residual = 0.000438246, No Iterations 2
**codeCorrect**
GAMG:  Solving for p, Initial residual = 0.149256, Final residual = 0.00958835, No Iterations 2
time step continuity errors : sum local = 0.00781162, global = 0.000197994, cumulative = 0.00335918
**codeCorrect**
ExecutionTime = 0.28 s  ClockTime = 38 s

Time = 9

**codeSetValue**
smoothSolver:  Solving for Ux, Initial residual = 0.542531, Final residual = 0.0249168, No Iterations 2
smoothSolver:  Solving for Uy, Initial residual = 0.0104905, Final residual = 0.00024366, No Iterations 2
**codeCorrect**
GAMG:  Solving for p, Initial residual = 0.0895618, Final residual = 0.00831728, No Iterations 2
time step continuity errors : sum local = 0.00813047, global = 0.00178915, cumulative = 0.00514833
**codeCorrect**
ExecutionTime = 0.29 s  ClockTime = 38 s

Time = 10

 At (0.025,0.025,0.05)  Deviation = 6.95322e-310 Unit vector = (0,0) F = (0,0,0) 
 At (0.075,0.025,0.05)  Deviation = 6.95322e-310 Unit vector = (0,0) F = (0,0,0) 
 At (0.125,0.025,0.05)  Deviation = 2.05293e-316 Unit vector = (0,0) F = (0,0,0) 
 At (0.175,0.025,0.05)  Deviation = 2.05293e-316 Unit vector = (0,0) F = (0,0,0) 
 At (0.225,0.025,0.05)  Deviation = 0 Unit vector = (0,0) F = (0,0,0) 
 At (0.275,0.025,0.05)  Deviation = -9.56958e-19 Unit vector = (0,0) F = (0,0,0) 
 At (0.325,0.025,0.05)  Deviation = 0 Unit vector = (0,0) F = (0,0,0) 
 At (0.375,0.025,0.05)  Deviation = -1.47796e-18 Unit vector = (0,0) F = (0,0,0) 
 At (0.425,0.025,0.05)  Deviation = 0 Unit vector = (0,0) F = (0,0,0) 
 At (0.475,0.025,0.05)  Deviation = 0 Unit vector = (0,0) F = (0,0,0) 
 At (0.525,0.025,0.05)  Deviation = 0.0014365 Unit vector = (0.00492538,0.999871) F = (-0.00324226,-2.25705,0) 
 At (0.575,0.025,0.05)  Deviation = 0.0050233 Unit vector = (0.0137654,0.999258) F = (-0.0396682,-7.89677,0) 
 At (0.625,0.025,0.05)  Deviation = 0.00649361 Unit vector = (0.0221704,0.998576) F = (-0.0663412,-10.2162,0) 
 At (0.675,0.025,0.05)  Deviation = 0.00699807 Unit vector = (0.0305366,0.997888) F = (-0.0771304,-11.0215,0) 
 At (0.725,0.025,0.05)  Deviation = 0.00700396 Unit vector = (0.0388904,0.997198) F = (-0.0773534,-11.0441,0) 
 At (0.775,0.025,0.05)  Deviation = 0.00677645 Unit vector = (0.0472374,0.996507) F = (-0.0724996,-10.6986,0) 
 At (0.825,0.025,0.05)  Deviation = 0.00646436 Unit vector = (0.0555797,0.995813) F = (-0.0660541,-10.2181,0) 
 At (0.875,0.025,0.05)  Deviation = 0.0061462 Unit vector = (0.0639179,0.995119) F = (-0.0597778,-9.72585,0) 
 At (0.925,0.025,0.05)  Deviation = 0.00586268 Unit vector = (0.0722522,0.994424) F = (-0.0544433,-9.28631,0) 
 At (0.975,0.025,0.05)  Deviation = 0.00563561 Unit vector = (0.0805826,0.993727) F = (-0.0503494,-8.93405,0) 
 At (1.025,0.025,0.05)  Deviation = 0.00548055 Unit vector = (0.0889089,0.99303) F = (-0.0476492,-8.69414,0) 
 At (1.075,0.025,0.05)  Deviation = 0.00541726 Unit vector = (0.0972307,0.992331) F = (-0.0465853,-8.59933,0) 
 At (1.125,0.025,0.05)  Deviation = 0.00546861 Unit vector = (0.105548,0.991631) F = (-0.0475097,-8.68763,0) 
 At (1.175,0.025,0.05)  Deviation = 0.00564878 Unit vector = (0.113859,0.99093) F = (-0.0507431,-8.98292,0) 
 At (1.225,0.025,0.05)  Deviation = 0.00596533 Unit vector = (0.122163,0.990228) F = (-0.0566641,-9.4988,0) 
 At (1.275,0.025,0.05)  Deviation = 0.00641939 Unit vector = (0.13046,0.989525) F = (-0.0657315,-10.2394,0) 
 At (1.325,0.025,0.05)  Deviation = 0.00701259 Unit vector = (0.138746,0.988819) F = (-0.078615,-11.2104,0) 
 At (1.375,0.025,0.05)  Deviation = 0.00772789 Unit vector = (0.147017,0.988111) F = (-0.0957334,-12.3878,0) 
 At (1.425,0.025,0.05)  Deviation = 0.00853533 Unit vector = (0.155255,0.987397) F = (-0.117167,-13.7269,0) 
 At (1.475,0.025,0.05)  Deviation = 0.00912394 Unit vector = (0.163024,0.986595) F = (-0.134348,-14.7244,0) 
 At (1.525,0.025,0.05)  Deviation = -1.43457e-20 Unit vector = (0,0) F = (0,0,0) 
 At (1.575,0.025,0.05)  Deviation = -6.18211e-21 Unit vector = (0,0) F = (0,0,0) 
 At (1.625,0.025,0.05)  Deviation = 0 Unit vector = (0,0) F = (0,0,0) 
 At (1.675,0.025,0.05)  Deviation = 9.15361e-21 Unit vector = (0,0) F = (0,0,0) 
 At (1.725,0.025,0.05)  Deviation = 0 Unit vector = (0,0) F = (0,0,0) 
 At (1.775,0.025,0.05)  Deviation = -1.27406e-20 Unit vector = (0,0) F = (0,0,0) 
 At (1.825,0.025,0.05)  Deviation = 0 Unit vector = (0,0) F = (0,0,0) 
 At (1.875,0.025,0.05)  Deviation = 1.68501e-20 Unit vector = (0,0) F = (0,0,0) 
 At (1.925,0.025,0.05)  Deviation = 1.68174e-20 Unit vector = (0,0) F = (0,0,0) 
 At (1.975,0.025,0.05)  Deviation = -4.24191e-20 Unit vector = (0,0) F = (0,0,0) 
 At (0.025,0.075,0.05)  Deviation = 2.57896e-20 Unit vector = (0,0) F = (0,0,0) 
 At (0.075,0.075,0.05)  Deviation = 2.53556e-20 Unit vector = (0,0) F = (0,0,0) 
 At (0.125,0.075,0.05)  Deviation = 9.47524e-21 Unit vector = (0,0) F = (0,0,0) 
 At (0.175,0.075,0.05)  Deviation = 2.89194e-20 Unit vector = (0,0) F = (0,0,0) 
 At (0.225,0.075,0.05)  Deviation = -1.24449e-20 Unit vector = (0,0) F = (0,0,0) 
 At (0.275,0.075,0.05)  Deviation = -3.16849e-20 Unit vector = (0,0) F = (0,0,0) 
 At (0.325,0.075,0.05)  Deviation = 2.29706e-20 Unit vector = (0,0) F = (0,0,0) 
 At (0.375,0.075,0.05)  Deviation = 3.3526e-20 Unit vector = (0,0) F = (0,0,0) 
 At (0.425,0.075,0.05)  Deviation = 0 Unit vector = (0,0) F = (0,0,0) 
 At (0.475,0.075,0.05)  Deviation = -3.43443e-20 Unit vector = (0,0) F = (0,0,0) 
 At (0.525,0.075,0.05)  Deviation = 0.00147147 Unit vector = (0.00498112,0.999934) F = (-0.00339468,-2.307,0) 
 At (0.575,0.075,0.05)  Deviation = 0.00569301 Unit vector = (0.0148095,0.99964) F = (-0.0507841,-8.92034,0) 
 At (0.625,0.075,0.05)  Deviation = 0.00764555 Unit vector = (0.024287,0.999132) F = (-0.0915508,-11.9742,0) 
 At (0.675,0.075,0.05)  Deviation = 0.0081397 Unit vector = (0.0331388,0.998498) F = (-0.103749,-12.7458,0) 
 At (0.725,0.075,0.05)  Deviation = 0.00802371 Unit vector = (0.0417494,0.99783) F = (-0.100829,-12.5661,0) 
 At (0.775,0.075,0.05)  Deviation = 0.00767479 Unit vector = (0.050278,0.99715) F = (-0.0922926,-12.0252,0) 
 At (0.825,0.075,0.05)  Deviation = 0.00725653 Unit vector = (0.0587659,0.996462) F = (-0.0825671,-11.3781,0) 
 At (0.875,0.075,0.05)  Deviation = 0.00685526 Unit vector = (0.0672264,0.995768) F = (-0.0737571,-10.759,0) 
 At (0.925,0.075,0.05)  Deviation = 0.00652272 Unit vector = (0.0756667,0.995069) F = (-0.0668501,-10.2487,0) 
 At (0.975,0.075,0.05)  Deviation = 0.00629303 Unit vector = (0.0840887,0.994366) F = (-0.0623064,-9.90074,0) 
 At (1.025,0.075,0.05)  Deviation = 0.0061997 Unit vector = (0.0924926,0.993658) F = (-0.0605645,-9.7688,0) 
 At (1.075,0.075,0.05)  Deviation = 0.00626677 Unit vector = (0.100877,0.992945) F = (-0.0619933,-9.89225,0) 
 At (1.125,0.075,0.05)  Deviation = 0.00648546 Unit vector = (0.109241,0.992227) F = (-0.0665369,-10.2593,0) 
 At (1.175,0.075,0.05)  Deviation = 0.00683516 Unit vector = (0.11758,0.991503) F = (-0.0740895,-10.8393,0) 
 At (1.225,0.075,0.05)  Deviation = 0.00729267 Unit vector = (0.125887,0.990773) F = (-0.0845823,-11.5981,0) 
 At (1.275,0.075,0.05)  Deviation = 0.0078364 Unit vector = (0.134149,0.990034) F = (-0.0979883,-12.504,0) 
 At (1.325,0.075,0.05)  Deviation = 0.00843259 Unit vector = (0.142333,0.989278) F = (-0.113889,-13.5055,0) 
 At (1.375,0.075,0.05)  Deviation = 0.00897154 Unit vector = (0.15029,0.988471) F = (-0.129426,-14.4259,0) 
 At (1.425,0.075,0.05)  Deviation = 0.0089912 Unit vector = (0.157266,0.987514) F = (-0.130504,-14.5142,0) 
 At (1.475,0.075,0.05)  Deviation = 0.00857984 Unit vector = (0.163229,0.986581) F = (-0.119238,-13.8971,0) 
 At (1.525,0.075,0.05)  Deviation = -5.63103e-19 Unit vector = (0,0) F = (0,0,0) 
 At (1.575,0.075,0.05)  Deviation = 0 Unit vector = (0,0) F = (0,0,0) 
 At (1.625,0.075,0.05)  Deviation = -1.81124e-18 Unit vector = (0,0) F = (0,0,0) 
 At (1.675,0.075,0.05)  Deviation = 7.35977e-22 Unit vector = (0,0) F = (0,0,0) 
 At (1.725,0.075,0.05)  Deviation = -6.78471e-19 Unit vector = (0,0) F = (0,0,0) 
 At (1.775,0.075,0.05)  Deviation = 0 Unit vector = (0,0) F = (0,0,0) 
 At (1.825,0.075,0.05)  Deviation = -8.68892e-19 Unit vector = (0,0) F = (0,0,0) 
 At (1.875,0.075,0.05)  Deviation = 0 Unit vector = (0,0) F = (0,0,0) 
 At (1.925,0.075,0.05)  Deviation = 0 Unit vector = (0,0) F = (0,0,0) 
 At (1.975,0.075,0.05)  Deviation = -2.74714e-22 Unit vector = (0,0) F = (0,0,0) 
 At (0.025,0.125,0.05)  Deviation = 2.3855e-18 Unit vector = (0,0) F = (0,0,0) 
 At (0.075,0.125,0.05)  Deviation = 0 Unit vector = (0,0) F = (0,0,0) 
 At (0.125,0.125,0.05)  Deviation = 0 Unit vector = (0,0) F = (0,0,0) 
 At (0.175,0.125,0.05)  Deviation = -1.0895e-23 Unit vector = (0,0) F = (0,0,0) 
 At (0.225,0.125,0.05)  Deviation = 0 Unit vector = (0,0) F = (0,0,0) 
 At (0.275,0.125,0.05)  Deviation = 1.05079e-22 Unit vector = (0,0) F = (0,0,0) 
 At (0.325,0.125,0.05)  Deviation = 1.48129e-18 Unit vector = (0,0) F = (0,0,0) 
 At (0.375,0.125,0.05)  Deviation = -1.56346e-22 Unit vector = (0,0) F = (0,0,0) 
 At (0.425,0.125,0.05)  Deviation = 1.04736e-18 Unit vector = (0,0) F = (0,0,0) 
 At (0.475,0.125,0.05)  Deviation = 1.24784e-22 Unit vector = (0,0) F = (0,0,0) 
 At (0.525,0.125,0.05)  Deviation = 0.00179332 Unit vector = (0.00499018,0.999952) F = (-0.0050357,-2.80803,0) 
 At (0.575,0.125,0.05)  Deviation = 0.0062412 Unit vector = (0.0149242,0.99977) F = (-0.0609418,-9.76431,0) 
 At (0.625,0.125,0.05)  Deviation = 0.00864219 Unit vector = (0.0247388,0.999448) F = (-0.11676,-13.5101,0) 
 At (0.675,0.125,0.05)  Deviation = 0.00985984 Unit vector = (0.034372,0.998993) F = (-0.151891,-15.4045,0) 
 At (0.725,0.125,0.05)  Deviation = 0.0103847 Unit vector = (0.0437856,0.998431) F = (-0.168445,-16.2199,0) 
 At (0.775,0.125,0.05)  Deviation = 0.0104506 Unit vector = (0.0528705,0.997797) F = (-0.170597,-16.3236,0) 
 At (0.825,0.125,0.05)  Deviation = 0.0102946 Unit vector = (0.0616944,0.997128) F = (-0.165615,-16.087,0) 
 At (0.875,0.125,0.05)  Deviation = 0.0101069 Unit vector = (0.0703993,0.996441) F = (-0.15976,-15.8065,0) 
 At (0.925,0.125,0.05)  Deviation = 0.00995394 Unit vector = (0.0790336,0.995741) F = (-0.155148,-15.5861,0) 
 At (0.975,0.125,0.05)  Deviation = 0.00986276 Unit vector = (0.0876142,0.995029) F = (-0.152567,-15.4685,0) 
 At (1.025,0.125,0.05)  Deviation = 0.00984909 Unit vector = (0.0961498,0.994305) F = (-0.152461,-15.4792,0) 
 At (1.075,0.125,0.05)  Deviation = 0.00991526 Unit vector = (0.104638,0.993568) F = (-0.154911,-15.6229,0) 
 At (1.125,0.125,0.05)  Deviation = 0.010052 Unit vector = (0.113075,0.992818) F = (-0.15969,-15.8858,0) 
 At (1.175,0.125,0.05)  Deviation = 0.0102382 Unit vector = (0.121441,0.992049) F = (-0.166223,-16.2349,0) 
 At (1.225,0.125,0.05)  Deviation = 0.0104417 Unit vector = (0.129699,0.99125) F = (-0.173536,-16.6189,0) 
 At (1.275,0.125,0.05)  Deviation = 0.0105543 Unit vector = (0.137682,0.990369) F = (-0.177997,-16.8642,0) 
 At (1.325,0.125,0.05)  Deviation = 0.0103516 Unit vector = (0.145006,0.989395) F = (-0.171908,-16.6062,0) 
 At (1.375,0.125,0.05)  Deviation = 0.00988043 Unit vector = (0.151648,0.988427) F = (-0.157202,-15.9099,0) 
 At (1.425,0.125,0.05)  Deviation = 0.00923149 Unit vector = (0.157674,0.987487) F = (-0.13769,-14.9148,0) 
 At (1.475,0.125,0.05)  Deviation = 0.00857027 Unit vector = (0.163264,0.986578) F = (-0.119003,-13.8853,0) 
 At (1.525,0.125,0.05)  Deviation = 0 Unit vector = (0,0) F = (0,0,0) 
 At (1.575,0.125,0.05)  Deviation = -2.67533e-20 Unit vector = (0,0) F = (0,0,0) 
 At (1.625,0.125,0.05)  Deviation = -5.26611e-21 Unit vector = (0,0) F = (0,0,0) 
 At (1.675,0.125,0.05)  Deviation = -2.89494e-20 Unit vector = (0,0) F = (0,0,0) 
 At (1.725,0.125,0.05)  Deviation = 5.99885e-21 Unit vector = (0,0) F = (0,0,0) 
 At (1.775,0.125,0.05)  Deviation = -2.77341e-20 Unit vector = (0,0) F = (0,0,0) 
 At (1.825,0.125,0.05)  Deviation = -6.5884e-21 Unit vector = (0,0) F = (0,0,0) 
 At (1.875,0.125,0.05)  Deviation = -4.38409e-20 Unit vector = (0,0) F = (0,0,0) 
 At (1.925,0.125,0.05)  Deviation = 7.24412e-21 Unit vector = (0,0) F = (0,0,0) 
 At (1.975,0.125,0.05)  Deviation = -2.85869e-20 Unit vector = (0,0) F = (0,0,0) 
 At (0.025,0.175,0.05)  Deviation = -8.01033e-21 Unit vector = (0,0) F = (0,0,0) 
 At (0.075,0.175,0.05)  Deviation = -4.99578e-21 Unit vector = (0,0) F = (0,0,0) 
 At (0.125,0.175,0.05)  Deviation = 0 Unit vector = (0,0) F = (0,0,0) 
 At (0.175,0.175,0.05)  Deviation = 5.62952e-21 Unit vector = (0,0) F = (0,0,0) 
 At (0.225,0.175,0.05)  Deviation = 9.38047e-21 Unit vector = (0,0) F = (0,0,0) 
 At (0.275,0.175,0.05)  Deviation = -3.53707e-20 Unit vector = (0,0) F = (0,0,0) 
 At (0.325,0.175,0.05)  Deviation = -9.549e-21 Unit vector = (0,0) F = (0,0,0) 
 At (0.375,0.175,0.05)  Deviation = -6.28705e-20 Unit vector = (0,0) F = (0,0,0) 
 At (0.425,0.175,0.05)  Deviation = 9.15988e-21 Unit vector = (0,0) F = (0,0,0) 
 At (0.475,0.175,0.05)  Deviation = 1.41208e-19 Unit vector = (0,0) F = (0,0,0) 
 At (0.525,0.175,0.05)  Deviation = 0.00216468 Unit vector = (0.0049957,0.999968) F = (-0.00733254,-3.38735,0) 
 At (0.575,0.175,0.05)  Deviation = 0.0066747 Unit vector = (0.0149675,0.999848) F = (-0.069658,-10.436,0) 
 At (0.625,0.175,0.05)  Deviation = 0.00921155 Unit vector = (0.0248843,0.999622) F = (-0.132581,-14.3926,0) 
 At (0.675,0.175,0.05)  Deviation = 0.0106481 Unit vector = (0.0347123,0.999292) F = (-0.177084,-16.6298,0) 
 At (0.725,0.175,0.05)  Deviation = 0.0114655 Unit vector = (0.0444267,0.998869) F = (-0.205282,-17.9036,0) 
 At (0.775,0.175,0.05)  Deviation = 0.011928 Unit vector = (0.0540105,0.998367) F = (-0.222218,-18.6291,0) 
 At (0.825,0.175,0.05)  Deviation = 0.012186 Unit vector = (0.063454,0.997796) F = (-0.232068,-19.0428,0) 
 At (0.875,0.175,0.05)  Deviation = 0.0123299 Unit vector = (0.0727546,0.99717) F = (-0.237817,-19.2868,0) 
 At (0.925,0.175,0.05)  Deviation = 0.0124148 Unit vector = (0.0819157,0.996498) F = (-0.241455,-19.448,0) 
 At (0.975,0.175,0.05)  Deviation = 0.0124705 Unit vector = (0.0909426,0.995789) F = (-0.244099,-19.5731,0) 
 At (1.025,0.175,0.05)  Deviation = 0.0124313 Unit vector = (0.0997091,0.995007) F = (-0.243147,-19.5583,0) 
 At (1.075,0.175,0.05)  Deviation = 0.0122477 Unit vector = (0.108093,0.994132) F = (-0.236684,-19.3238,0) 
 At (1.125,0.175,0.05)  Deviation = 0.0120034 Unit vector = (0.116183,0.993219) F = (-0.228058,-18.9985,0) 
 At (1.175,0.175,0.05)  Deviation = 0.0116799 Unit vector = (0.123954,0.992277) F = (-0.216671,-18.5499,0) 
 At (1.225,0.175,0.05)  Deviation = 0.0112739 Unit vector = (0.131395,0.991317) F = (-0.202586,-17.9687,0) 
 At (1.275,0.175,0.05)  Deviation = 0.0107826 Unit vector = (0.138492,0.99035) F = (-0.185968,-17.2464,0) 
 At (1.325,0.175,0.05)  Deviation = 0.0102107 Unit vector = (0.145229,0.989384) F = (-0.167328,-16.387,0) 
 At (1.375,0.175,0.05)  Deviation = 0.00957906 Unit vector = (0.151592,0.988429) F = (-0.147725,-15.4211,0) 
 At (1.425,0.175,0.05)  Deviation = 0.00893817 Unit vector = (0.15757,0.987494) F = (-0.128982,-14.4301,0) 
 At (1.475,0.175,0.05)  Deviation = 0.00837913 Unit vector = (0.163221,0.986582) F = (-0.113634,-13.5612,0) 
 At (1.525,0.175,0.05)  Deviation = 0 Unit vector = (0,0) F = (0,0,0) 
 At (1.575,0.175,0.05)  Deviation = 1.75609e-18 Unit vector = (0,0) F = (0,0,0) 
 At (1.625,0.175,0.05)  Deviation = 0 Unit vector = (0,0) F = (0,0,0) 
 At (1.675,0.175,0.05)  Deviation = 2.01036e-18 Unit vector = (0,0) F = (0,0,0) 
 At (1.725,0.175,0.05)  Deviation = 4.4726e-22 Unit vector = (0,0) F = (0,0,0) 
 At (1.775,0.175,0.05)  Deviation = 0 Unit vector = (0,0) F = (0,0,0) 
 At (1.825,0.175,0.05)  Deviation = 0 Unit vector = (0,0) F = (0,0,0) 
 At (1.875,0.175,0.05)  Deviation = 1.0966e-18 Unit vector = (0,0) F = (0,0,0) 
 At (1.925,0.175,0.05)  Deviation = 4.11987e-23 Unit vector = (0,0) F = (0,0,0) 
 At (1.975,0.175,0.05)  Deviation = 0 Unit vector = (0,0) F = (0,0,0) 
 At (0.025,0.225,0.05)  Deviation = 0 Unit vector = (0,0) F = (0,0,0) 
 At (0.075,0.225,0.05)  Deviation = -0 Unit vector = (0,0) F = (0,0,0) 
 At (0.125,0.225,0.05)  Deviation = 0 Unit vector = (0,0) F = (0,0,0) 
 At (0.175,0.225,0.05)  Deviation = -9.61404e-19 Unit vector = (0,0) F = (0,0,0) 
 At (0.225,0.225,0.05)  Deviation = -0 Unit vector = (0,0) F = (0,0,0) 
 At (0.275,0.225,0.05)  Deviation = 1.48279e-18 Unit vector = (0,0) F = (0,0,0) 
 At (0.325,0.225,0.05)  Deviation = 0 Unit vector = (0,0) F = (0,0,0) 
 At (0.375,0.225,0.05)  Deviation = 0 Unit vector = (0,0) F = (0,0,0) 
 At (0.425,0.225,0.05)  Deviation = -1.84512e-22 Unit vector = (0,0) F = (0,0,0) 
 At (0.475,0.225,0.05)  Deviation = -1.23724e-22 Unit vector = (0,0) F = (0,0,0) 
 At (0.525,0.225,0.05)  Deviation = 0.00250623 Unit vector = (0.00499641,0.999971) F = (-0.00982738,-3.92117,0) 
 At (0.575,0.225,0.05)  Deviation = 0.00700864 Unit vector = (0.0149747,0.999865) F = (-0.076799,-10.9576,0) 
 At (0.625,0.225,0.05)  Deviation = 0.00956585 Unit vector = (0.0249109,0.999667) F = (-0.143,-14.9485,0) 
 At (0.675,0.225,0.05)  Deviation = 0.0110349 Unit vector = (0.0347768,0.999371) F = (-0.190263,-17.2412,0) 
 At (0.725,0.225,0.05)  Deviation = 0.0118899 Unit vector = (0.0445449,0.998983) F = (-0.220924,-18.58,0) 
 At (0.775,0.225,0.05)  Deviation = 0.0123915 Unit vector = (0.0541883,0.998505) F = (-0.240082,-19.3737,0) 
 At (0.825,0.225,0.05)  Deviation = 0.0126798 Unit vector = (0.0636806,0.997944) F = (-0.251607,-19.842,0) 
 At (0.875,0.225,0.05)  Deviation = 0.0128255 Unit vector = (0.0729964,0.997306) F = (-0.257752,-20.0957,0) 
 At (0.925,0.225,0.05)  Deviation = 0.0128614 Unit vector = (0.082111,0.996596) F = (-0.259636,-20.1861,0) 
 At (0.975,0.225,0.05)  Deviation = 0.0128004 Unit vector = (0.0910009,0.995823) F = (-0.25771,-20.1318,0) 
 At (1.025,0.225,0.05)  Deviation = 0.0126446 Unit vector = (0.0996432,0.994996) F = (-0.252074,-19.9342,0) 
 At (1.075,0.225,0.05)  Deviation = 0.0123928 Unit vector = (0.108016,0.994122) F = (-0.242779,-19.5893,0) 
 At (1.125,0.225,0.05)  Deviation = 0.0120453 Unit vector = (0.1161,0.993211) F = (-0.230008,-19.0944,0) 
 At (1.175,0.225,0.05)  Deviation = 0.0116053 Unit vector = (0.123875,0.992273) F = (-0.214152,-18.4521,0) 
 At (1.225,0.225,0.05)  Deviation = 0.0110832 Unit vector = (0.131323,0.991315) F = (-0.195908,-17.6755,0) 
 At (1.275,0.225,0.05)  Deviation = 0.0104999 Unit vector = (0.138428,0.99035) F = (-0.17636,-16.7957,0) 
 At (1.325,0.225,0.05)  Deviation = 0.00988897 Unit vector = (0.145174,0.989385) F = (-0.156893,-15.8649,0) 
 At (1.375,0.225,0.05)  Deviation = 0.00928514 Unit vector = (0.151547,0.988431) F = (-0.138702,-14.9376,0) 
 At (1.425,0.225,0.05)  Deviation = 0.00872341 Unit vector = (0.157539,0.987497) F = (-0.122751,-14.0711,0) 
 At (1.475,0.225,0.05)  Deviation = 0.00826409 Unit vector = (0.163213,0.986583) F = (-0.110434,-13.3629,0) 
 At (1.525,0.225,0.05)  Deviation = 2.96739e-20 Unit vector = (0,0) F = (0,0,0) 
 At (1.575,0.225,0.05)  Deviation = 4.7642e-21 Unit vector = (0,0) F = (0,0,0) 
 At (1.625,0.225,0.05)  Deviation = 3.14704e-20 Unit vector = (0,0) F = (0,0,0) 
 At (1.675,0.225,0.05)  Deviation = 0 Unit vector = (0,0) F = (0,0,0) 
 At (1.725,0.225,0.05)  Deviation = 0 Unit vector = (0,0) F = (0,0,0) 
 At (1.775,0.225,0.05)  Deviation = 0 Unit vector = (0,0) F = (0,0,0) 
 At (1.825,0.225,0.05)  Deviation = 1.62531e-20 Unit vector = (0,0) F = (0,0,0) 
 At (1.875,0.225,0.05)  Deviation = 0 Unit vector = (0,0) F = (0,0,0) 
 At (1.925,0.225,0.05)  Deviation = 5.9831e-21 Unit vector = (0,0) F = (0,0,0) 
 At (1.975,0.225,0.05)  Deviation = 1.74116e-21 Unit vector = (0,0) F = (0,0,0) 
 At (0.025,0.275,0.05)  Deviation = -9.20943e-21 Unit vector = (0,0) F = (0,0,0) 
 At (0.075,0.275,0.05)  Deviation = 0 Unit vector = (0,0) F = (0,0,0) 
 At (0.125,0.275,0.05)  Deviation = -1.50641e-20 Unit vector = (0,0) F = (0,0,0) 
 At (0.175,0.275,0.05)  Deviation = -1.28973e-20 Unit vector = (0,0) F = (0,0,0) 
 At (0.225,0.275,0.05)  Deviation = 0 Unit vector = (0,0) F = (0,0,0) 
 At (0.275,0.275,0.05)  Deviation = 8.91884e-21 Unit vector = (0,0) F = (0,0,0) 
 At (0.325,0.275,0.05)  Deviation = 8.31217e-20 Unit vector = (0,0) F = (0,0,0) 
 At (0.375,0.275,0.05)  Deviation = -2.29271e-20 Unit vector = (0,0) F = (0,0,0) 
 At (0.425,0.275,0.05)  Deviation = -1.17836e-19 Unit vector = (0,0) F = (0,0,0) 
 At (0.475,0.275,0.05)  Deviation = 4.16129e-20 Unit vector = (0,0) F = (0,0,0) 
 At (0.525,0.275,0.05)  Deviation = 0.00279406 Unit vector = (0.00499444,0.999964) F = (-0.0122158,-4.37205,0) 
 At (0.575,0.275,0.05)  Deviation = 0.00725129 Unit vector = (0.0149664,0.999846) F = (-0.082231,-11.34,0) 
 At (0.625,0.275,0.05)  Deviation = 0.00977936 Unit vector = (0.0248974,0.999648) F = (-0.149522,-15.2891,0) 
 At (0.675,0.275,0.05)  Deviation = 0.0112174 Unit vector = (0.0347587,0.999354) F = (-0.196739,-17.538,0) 
 At (0.725,0.275,0.05)  Deviation = 0.0120322 Unit vector = (0.044523,0.998967) F = (-0.226446,-18.819,0) 
 At (0.775,0.275,0.05)  Deviation = 0.0124806 Unit vector = (0.0541635,0.998492) F = (-0.243814,-19.5344,0) 
 At (0.825,0.275,0.05)  Deviation = 0.0127011 Unit vector = (0.0636538,0.997932) F = (-0.252771,-19.9005,0) 
 At (0.875,0.275,0.05)  Deviation = 0.0127658 Unit vector = (0.0729686,0.997296) F = (-0.255713,-20.03,0) 
 At (0.925,0.275,0.05)  Deviation = 0.0127114 Unit vector = (0.0820833,0.996588) F = (-0.25398,-19.9793,0) 
 At (0.975,0.275,0.05)  Deviation = 0.012557 Unit vector = (0.0909743,0.995818) F = (-0.248348,-19.7767,0) 
 At (1.025,0.275,0.05)  Deviation = 0.0123153 Unit vector = (0.099619,0.994992) F = (-0.239428,-19.4405,0) 
 At (1.075,0.275,0.05)  Deviation = 0.0119977 Unit vector = (0.107996,0.99412) F = (-0.227804,-18.9864,0) 
 At (1.125,0.275,0.05)  Deviation = 0.0116121 Unit vector = (0.116085,0.99321) F = (-0.213958,-18.4247,0) 
 At (1.175,0.275,0.05)  Deviation = 0.0111675 Unit vector = (0.123867,0.992272) F = (-0.198425,-17.7674,0) 
 At (1.225,0.275,0.05)  Deviation = 0.010677 Unit vector = (0.131324,0.991315) F = (-0.181875,-17.0336,0) 
 At (1.275,0.275,0.05)  Deviation = 0.0101592 Unit vector = (0.138439,0.99035) F = (-0.16511,-16.2516,0) 
 At (1.325,0.275,0.05)  Deviation = 0.00963591 Unit vector = (0.145196,0.989385) F = (-0.148936,-15.4559,0) 
 At (1.375,0.275,0.05)  Deviation = 0.00912552 Unit vector = (0.151582,0.988429) F = (-0.133924,-14.6754,0) 
 At (1.425,0.275,0.05)  Deviation = 0.00864366 Unit vector = (0.157583,0.987493) F = (-0.120461,-13.936,0) 
 At (1.475,0.275,0.05)  Deviation = 0.00822195 Unit vector = (0.163234,0.986581) F = (-0.109256,-13.2881,0) 
 At (1.525,0.275,0.05)  Deviation = -1.14813e-18 Unit vector = (0,0) F = (0,0,0) 
 At (1.575,0.275,0.05)  Deviation = 1.9505e-21 Unit vector = (0,0) F = (0,0,0) 
 At (1.625,0.275,0.05)  Deviation = -1.33628e-18 Unit vector = (0,0) F = (0,0,0) 
 At (1.675,0.275,0.05)  Deviation = -1.12597e-21 Unit vector = (0,0) F = (0,0,0) 
 At (1.725,0.275,0.05)  Deviation = 9.36306e-23 Unit vector = (0,0) F = (0,0,0) 
 At (1.775,0.275,0.05)  Deviation = -1.99766e-22 Unit vector = (0,0) F = (0,0,0) 
 At (1.825,0.275,0.05)  Deviation = -1.10231e-18 Unit vector = (0,0) F = (0,0,0) 
 At (1.875,0.275,0.05)  Deviation = 0 Unit vector = (0,0) F = (0,0,0) 
 At (1.925,0.275,0.05)  Deviation = 0 Unit vector = (0,0) F = (0,0,0) 
 At (1.975,0.275,0.05)  Deviation = -1.04046e-21 Unit vector = (0,0) F = (0,0,0) 
 At (0.025,0.325,0.05)  Deviation = 0 Unit vector = (0,0) F = (0,0,0) 
 At (0.075,0.325,0.05)  Deviation = 3.42897e-21 Unit vector = (0,0) F = (0,0,0) 
 At (0.125,0.325,0.05)  Deviation = -9.62438e-19 Unit vector = (0,0) F = (0,0,0) 
 At (0.175,0.325,0.05)  Deviation = -2.10489e-21 Unit vector = (0,0) F = (0,0,0) 
 At (0.225,0.325,0.05)  Deviation = -2.22306e-18 Unit vector = (0,0) F = (0,0,0) 
 At (0.275,0.325,0.05)  Deviation = -8.18976e-22 Unit vector = (0,0) F = (0,0,0) 
 At (0.325,0.325,0.05)  Deviation = -1.56456e-18 Unit vector = (0,0) F = (0,0,0) 
 At (0.375,0.325,0.05)  Deviation = 4.41729e-22 Unit vector = (0,0) F = (0,0,0) 
 At (0.425,0.325,0.05)  Deviation = -3.25792e-19 Unit vector = (0,0) F = (0,0,0) 
 At (0.475,0.325,0.05)  Deviation = 3.81335e-19 Unit vector = (0,0) F = (0,0,0) 
 At (0.525,0.325,0.05)  Deviation = 0.00302828 Unit vector = (0.00499443,0.999964) F = (-0.0143541,-4.74,0) 
 At (0.575,0.325,0.05)  Deviation = 0.00743368 Unit vector = (0.0149664,0.999846) F = (-0.0864574,-11.6303,0) 
 At (0.625,0.325,0.05)  Deviation = 0.00992401 Unit vector = (0.0248977,0.999648) F = (-0.154065,-15.524,0) 
 At (0.675,0.325,0.05)  Deviation = 0.0113251 Unit vector = (0.0347597,0.999355) F = (-0.200676,-17.7188,0) 
 At (0.725,0.325,0.05)  Deviation = 0.0120981 Unit vector = (0.0445251,0.998969) F = (-0.229125,-18.9379,0) 
 At (0.775,0.325,0.05)  Deviation = 0.0124988 Unit vector = (0.0541674,0.998494) F = (-0.244755,-19.5813,0) 
 At (0.825,0.325,0.05)  Deviation = 0.0126673 Unit vector = (0.0636604,0.997935) F = (-0.251689,-19.8681,0) 
 At (0.875,0.325,0.05)  Deviation = 0.0126802 Unit vector = (0.0729788,0.997299) F = (-0.252564,-19.9169,0) 
 At (0.925,0.325,0.05)  Deviation = 0.0125788 Unit vector = (0.0820981,0.996592) F = (-0.24897,-19.7918,0) 
 At (0.975,0.325,0.05)  Deviation = 0.0123869 Unit vector = (0.0909948,0.995822) F = (-0.241908,-19.5283,0) 
 At (1.025,0.325,0.05)  Deviation = 0.0121197 Unit vector = (0.0996465,0.994997) F = (-0.23209,-19.1489,0) 
 At (1.075,0.325,0.05)  Deviation = 0.0117885 Unit vector = (0.108032,0.994124) F = (-0.220098,-18.6697,0) 
 At (1.125,0.325,0.05)  Deviation = 0.0114031 Unit vector = (0.116131,0.993214) F = (-0.206448,-18.1038,0) 
 At (1.175,0.325,0.05)  Deviation = 0.0109739 Unit vector = (0.123925,0.992275) F = (-0.191682,-17.4663,0) 
 At (1.225,0.325,0.05)  Deviation = 0.0105146 Unit vector = (0.131396,0.991317) F = (-0.176416,-16.7776,0) 
 At (1.275,0.325,0.05)  Deviation = 0.0100408 Unit vector = (0.138528,0.99035) F = (-0.161282,-16.0622,0) 
 At (1.325,0.325,0.05)  Deviation = 0.00956446 Unit vector = (0.145299,0.989382) F = (-0.146714,-15.339,0) 
 At (1.375,0.325,0.05)  Deviation = 0.00908976 Unit vector = (0.151683,0.988424) F = (-0.132841,-14.614,0) 
 At (1.425,0.325,0.05)  Deviation = 0.00863397 Unit vector = (0.157674,0.987487) F = (-0.120149,-13.9155,0) 
 At (1.475,0.325,0.05)  Deviation = 0.0081959 Unit vector = (0.163264,0.986578) F = (-0.108522,-13.2407,0) 
 At (1.525,0.325,0.05)  Deviation = -6.22726e-22 Unit vector = (0,0) F = (0,0,0) 
 At (1.575,0.325,0.05)  Deviation = 2.84631e-20 Unit vector = (0,0) F = (0,0,0) 
 At (1.625,0.325,0.05)  Deviation = -7.63072e-22 Unit vector = (0,0) F = (0,0,0) 
 At (1.675,0.325,0.05)  Deviation = 3.9444e-20 Unit vector = (0,0) F = (0,0,0) 
 At (1.725,0.325,0.05)  Deviation = -5.53155e-21 Unit vector = (0,0) F = (0,0,0) 
 At (1.775,0.325,0.05)  Deviation = 0 Unit vector = (0,0) F = (0,0,0) 
 At (1.825,0.325,0.05)  Deviation = 1.04718e-20 Unit vector = (0,0) F = (0,0,0) 
 At (1.875,0.325,0.05)  Deviation = -4.02999e-21 Unit vector = (0,0) F = (0,0,0) 
 At (1.925,0.325,0.05)  Deviation = 0 Unit vector = (0,0) F = (0,0,0) 
 At (1.975,0.325,0.05)  Deviation = -0 Unit vector = (0,0) F = (0,0,0) 
 At (0.025,0.375,0.05)  Deviation = -2.16502e-20 Unit vector = (0,0) F = (0,0,0) 
 At (0.075,0.375,0.05)  Deviation = 2.67563e-20 Unit vector = (0,0) F = (0,0,0) 
 At (0.125,0.375,0.05)  Deviation = 2.70902e-20 Unit vector = (0,0) F = (0,0,0) 
 At (0.175,0.375,0.05)  Deviation = 7.72788e-20 Unit vector = (0,0) F = (0,0,0) 
 At (0.225,0.375,0.05)  Deviation = 0 Unit vector = (0,0) F = (0,0,0) 
 At (0.275,0.375,0.05)  Deviation = -5.15113e-20 Unit vector = (0,0) F = (0,0,0) 
 At (0.325,0.375,0.05)  Deviation = -1.77279e-20 Unit vector = (0,0) F = (0,0,0) 
 At (0.375,0.375,0.05)  Deviation = -1.307e-19 Unit vector = (0,0) F = (0,0,0) 
 At (0.425,0.375,0.05)  Deviation = 1.88044e-20 Unit vector = (0,0) F = (0,0,0) 
 At (0.475,0.375,0.05)  Deviation = -0 Unit vector = (0,0) F = (0,0,0) 
 At (0.525,0.375,0.05)  Deviation = 0.00321176 Unit vector = (0.00499638,0.99997) F = (-0.0161529,-5.02929,0) 
 At (0.575,0.375,0.05)  Deviation = 0.00757035 Unit vector = (0.0149749,0.999866) F = (-0.089713,-11.8504,0) 
 At (0.625,0.375,0.05)  Deviation = 0.0100261 Unit vector = (0.0249122,0.999668) F = (-0.157351,-15.6936,0) 
 At (0.675,0.375,0.05)  Deviation = 0.0113959 Unit vector = (0.0347806,0.999375) F = (-0.203341,-17.8425,0) 
 At (0.725,0.375,0.05)  Deviation = 0.0121368 Unit vector = (0.0445534,0.998989) F = (-0.230776,-19.0136,0) 
 At (0.775,0.375,0.05)  Deviation = 0.0125037 Unit vector = (0.0542037,0.998514) F = (-0.245155,-19.6056,0) 
 At (0.825,0.375,0.05)  Deviation = 0.0126381 Unit vector = (0.0637057,0.997955) F = (-0.250747,-19.8395,0) 
 At (0.875,0.375,0.05)  Deviation = 0.0126179 Unit vector = (0.0730328,0.997318) F = (-0.250307,-19.8364,0) 
 At (0.925,0.375,0.05)  Deviation = 0.0124854 Unit vector = (0.0821571,0.996609) F = (-0.245489,-19.6611,0) 
 At (0.975,0.375,0.05)  Deviation = 0.0122677 Unit vector = (0.0910566,0.995836) F = (-0.237454,-19.3551,0) 
 At (1.025,0.375,0.05)  Deviation = 0.0119815 Unit vector = (0.0997091,0.995007) F = (-0.226979,-18.9432,0) 
 At (1.075,0.375,0.05)  Deviation = 0.0116384 Unit vector = (0.108093,0.994132) F = (-0.21464,-18.4416,0) 
 At (1.125,0.375,0.05)  Deviation = 0.0112461 Unit vector = (0.116183,0.993219) F = (-0.200879,-17.8614,0) 
 At (1.175,0.375,0.05)  Deviation = 0.0108118 Unit vector = (0.123954,0.992277) F = (-0.1861,-17.2121,0) 
 At (1.225,0.375,0.05)  Deviation = 0.0103534 Unit vector = (0.131395,0.991317) F = (-0.17106,-16.5215,0) 
 At (1.275,0.375,0.05)  Deviation = 0.00988585 Unit vector = (0.138492,0.99035) F = (-0.156332,-15.8132,0) 
 At (1.325,0.375,0.05)  Deviation = 0.00942148 Unit vector = (0.145229,0.989384) F = (-0.142333,-15.1068,0) 
 At (1.375,0.375,0.05)  Deviation = 0.00896813 Unit vector = (0.151592,0.988429) F = (-0.129274,-14.4144,0) 
 At (1.425,0.375,0.05)  Deviation = 0.00853405 Unit vector = (0.15757,0.987494) F = (-0.117344,-13.7498,0) 
 At (1.475,0.375,0.05)  Deviation = 0.00816042 Unit vector = (0.163221,0.986582) F = (-0.107545,-13.1786,0) 
 At (1.525,0.375,0.05)  Deviation = 5.50408e-22 Unit vector = (0,0) F = (0,0,0) 
 At (1.575,0.375,0.05)  Deviation = 0 Unit vector = (0,0) F = (0,0,0) 
 At (1.625,0.375,0.05)  Deviation = 2.03769e-22 Unit vector = (0,0) F = (0,0,0) 
 At (1.675,0.375,0.05)  Deviation = 8.7619e-19 Unit vector = (0,0) F = (0,0,0) 
 At (1.725,0.375,0.05)  Deviation = 0 Unit vector = (0,0) F = (0,0,0) 
 At (1.775,0.375,0.05)  Deviation = 0 Unit vector = (0,0) F = (0,0,0) 
 At (1.825,0.375,0.05)  Deviation = 0 Unit vector = (0,0) F = (0,0,0) 
 At (1.875,0.375,0.05)  Deviation = 0 Unit vector = (0,0) F = (0,0,0) 
 At (1.925,0.375,0.05)  Deviation = -1.11937e-21 Unit vector = (0,0) F = (0,0,0) 
 At (1.975,0.375,0.05)  Deviation = 0 Unit vector = (0,0) F = (0,0,0) 
 At (0.025,0.425,0.05)  Deviation = 2.11505e-21 Unit vector = (0,0) F = (0,0,0) 
 At (0.075,0.425,0.05)  Deviation = 9.62208e-19 Unit vector = (0,0) F = (0,0,0) 
 At (0.125,0.425,0.05)  Deviation = -1.73075e-21 Unit vector = (0,0) F = (0,0,0) 
 At (0.175,0.425,0.05)  Deviation = -0 Unit vector = (0,0) F = (0,0,0) 
 At (0.225,0.425,0.05)  Deviation = 0 Unit vector = (0,0) F = (0,0,0) 
 At (0.275,0.425,0.05)  Deviation = 5.193e-19 Unit vector = (0,0) F = (0,0,0) 
 At (0.325,0.425,0.05)  Deviation = 2.71703e-22 Unit vector = (0,0) F = (0,0,0) 
 At (0.375,0.425,0.05)  Deviation = 3.23234e-19 Unit vector = (0,0) F = (0,0,0) 
 At (0.425,0.425,0.05)  Deviation = -1.88539e-19 Unit vector = (0,0) F = (0,0,0) 
 At (0.475,0.425,0.05)  Deviation = 0 Unit vector = (0,0) F = (0,0,0) 
 At (0.525,0.425,0.05)  Deviation = 0.00334627 Unit vector = (0.00499641,0.999971) F = (-0.0175427,-5.24245,0) 
 At (0.575,0.425,0.05)  Deviation = 0.00765977 Unit vector = (0.0149747,0.999865) F = (-0.091898,-11.9972,0) 
 At (0.625,0.425,0.05)  Deviation = 0.0100814 Unit vector = (0.0249109,0.999667) F = (-0.159193,-15.7903,0) 
 At (0.675,0.425,0.05)  Deviation = 0.0114203 Unit vector = (0.0347768,0.999371) F = (-0.204353,-17.8931,0) 
 At (0.725,0.425,0.05)  Deviation = 0.01213 Unit vector = (0.0445449,0.998983) F = (-0.230687,-19.0169,0) 
 At (0.775,0.425,0.05)  Deviation = 0.0124648 Unit vector = (0.0541883,0.998505) F = (-0.243813,-19.5592,0) 
 At (0.825,0.425,0.05)  Deviation = 0.0125668 Unit vector = (0.0636806,0.997944) F = (-0.248108,-19.7421,0) 
 At (0.875,0.425,0.05)  Deviation = 0.0125162 Unit vector = (0.0729964,0.997306) F = (-0.246455,-19.6899,0) 
 At (0.925,0.425,0.05)  Deviation = 0.0123583 Unit vector = (0.082111,0.996596) F = (-0.240668,-19.4731,0) 
 At (0.975,0.425,0.05)  Deviation = 0.0121203 Unit vector = (0.0910009,0.995823) F = (-0.231905,-19.1327,0) 
 At (1.025,0.425,0.05)  Deviation = 0.011819 Unit vector = (0.0996432,0.994996) F = (-0.220958,-18.6942,0) 
 At (1.075,0.425,0.05)  Deviation = 0.011467 Unit vector = (0.108016,0.994122) F = (-0.208431,-18.1757,0) 
 At (1.125,0.425,0.05)  Deviation = 0.0110748 Unit vector = (0.1161,0.993211) F = (-0.194841,-17.5925,0) 
 At (1.175,0.425,0.05)  Deviation = 0.0106527 Unit vector = (0.123875,0.992273) F = (-0.180674,-16.9597,0) 
 At (1.225,0.425,0.05)  Deviation = 0.0102121 Unit vector = (0.131323,0.991315) F = (-0.166412,-16.295,0) 
 At (1.275,0.425,0.05)  Deviation = 0.009765 Unit vector = (0.138428,0.99035) F = (-0.152507,-15.6172,0) 
 At (1.325,0.425,0.05)  Deviation = 0.00932228 Unit vector = (0.145174,0.989385) F = (-0.139317,-14.9441,0) 
 At (1.375,0.425,0.05)  Deviation = 0.00889126 Unit vector = (0.151547,0.988431) F = (-0.127032,-14.2869,0) 
 At (1.425,0.425,0.05)  Deviation = 0.00848124 Unit vector = (0.157539,0.987497) F = (-0.115864,-13.6609,0) 
 At (1.475,0.425,0.05)  Deviation = 0.00813685 Unit vector = (0.163213,0.986583) F = (-0.106898,-13.1372,0) 
 At (1.525,0.425,0.05)  Deviation = 0 Unit vector = (0,0) F = (0,0,0) 
 At (1.575,0.425,0.05)  Deviation = 0 Unit vector = (0,0) F = (0,0,0) 
 At (1.625,0.425,0.05)  Deviation = -2.78375e-20 Unit vector = (0,0) F = (0,0,0) 
 At (1.675,0.425,0.05)  Deviation = -1.05442e-20 Unit vector = (0,0) F = (0,0,0) 
 At (1.725,0.425,0.05)  Deviation = 1.00106e-21 Unit vector = (0,0) F = (0,0,0) 
 At (1.775,0.425,0.05)  Deviation = 1.4263e-20 Unit vector = (0,0) F = (0,0,0) 
 At (1.825,0.425,0.05)  Deviation = 1.16748e-20 Unit vector = (0,0) F = (0,0,0) 
 At (1.875,0.425,0.05)  Deviation = 0 Unit vector = (0,0) F = (0,0,0) 
 At (1.925,0.425,0.05)  Deviation = -2.3205e-20 Unit vector = (0,0) F = (0,0,0) 
 At (1.975,0.425,0.05)  Deviation = 0 Unit vector = (0,0) F = (0,0,0) 
 At (0.025,0.475,0.05)  Deviation = 0 Unit vector = (0,0) F = (0,0,0) 
 At (0.075,0.475,0.05)  Deviation = -0 Unit vector = (0,0) F = (0,0,0) 
 At (0.125,0.475,0.05)  Deviation = -4.46265e-20 Unit vector = (0,0) F = (0,0,0) 
 At (0.175,0.475,0.05)  Deviation = -2.61099e-20 Unit vector = (0,0) F = (0,0,0) 
 At (0.225,0.475,0.05)  Deviation = 0 Unit vector = (0,0) F = (0,0,0) 
 At (0.275,0.475,0.05)  Deviation = 5.37234e-20 Unit vector = (0,0) F = (0,0,0) 
 At (0.325,0.475,0.05)  Deviation = -0 Unit vector = (0,0) F = (0,0,0) 
 At (0.375,0.475,0.05)  Deviation = -5.29394e-20 Unit vector = (0,0) F = (0,0,0) 
 At (0.425,0.475,0.05)  Deviation = -1.58749e-19 Unit vector = (0,0) F = (0,0,0) 
 At (0.475,0.475,0.05)  Deviation = 0 Unit vector = (0,0) F = (0,0,0) 
 At (0.525,0.475,0.05)  Deviation = 0.00343841 Unit vector = (0.00499444,0.999964) F = (-0.0185315,-5.38952,0) 
 At (0.575,0.475,0.05)  Deviation = 0.00771276 Unit vector = (0.0149664,0.999846) F = (-0.0932276,-12.0872,0) 
 At (0.625,0.475,0.05)  Deviation = 0.0101056 Unit vector = (0.0248974,0.999648) F = (-0.16006,-15.8382,0) 
 At (0.675,0.475,0.05)  Deviation = 0.01142 Unit vector = (0.0347587,0.999354) F = (-0.204474,-17.9042,0) 
 At (0.725,0.475,0.05)  Deviation = 0.0121071 Unit vector = (0.044523,0.998967) F = (-0.229962,-18.993,0) 
 At (0.775,0.475,0.05)  Deviation = 0.0124205 Unit vector = (0.0541635,0.998492) F = (-0.242231,-19.5016,0) 
 At (0.825,0.475,0.05)  Deviation = 0.0125029 Unit vector = (0.0636538,0.997932) F = (-0.245729,-19.6528,0) 
 At (0.875,0.475,0.05)  Deviation = 0.0124353 Unit vector = (0.0729686,0.997296) F = (-0.243402,-19.5726,0) 
 At (0.925,0.475,0.05)  Deviation = 0.0122642 Unit vector = (0.0820833,0.996588) F = (-0.237119,-19.3332,0) 
 At (0.975,0.475,0.05)  Deviation = 0.0120176 Unit vector = (0.0909743,0.995818) F = (-0.228071,-18.9772,0) 
 At (1.025,0.475,0.05)  Deviation = 0.0117131 Unit vector = (0.099619,0.994992) F = (-0.217068,-18.5313,0) 
 At (1.075,0.475,0.05)  Deviation = 0.0113634 Unit vector = (0.107996,0.99412) F = (-0.204713,-18.0143,0) 
 At (1.125,0.475,0.05)  Deviation = 0.0109795 Unit vector = (0.116085,0.99321) F = (-0.191514,-17.4422,0) 
 At (1.175,0.475,0.05)  Deviation = 0.0105718 Unit vector = (0.123867,0.992272) F = (-0.177936,-16.8305,0) 
 At (1.225,0.475,0.05)  Deviation = 0.0101507 Unit vector = (0.131324,0.991315) F = (-0.164403,-16.1956,0) 
 At (1.275,0.475,0.05)  Deviation = 0.0097264 Unit vector = (0.138439,0.99035) F = (-0.151282,-15.5532,0) 
 At (1.325,0.475,0.05)  Deviation = 0.0093071 Unit vector = (0.145196,0.989385) F = (-0.138839,-14.9171,0) 
 At (1.375,0.475,0.05)  Deviation = 0.00889733 Unit vector = (0.151582,0.988429) F = (-0.127181,-14.2939,0) 
 At (1.425,0.475,0.05)  Deviation = 0.00850127 Unit vector = (0.157583,0.987493) F = (-0.11639,-13.6906,0) 
 At (1.475,0.475,0.05)  Deviation = 0.00814388 Unit vector = (0.163234,0.986581) F = (-0.107064,-13.1463,0) 
 At (1.525,0.475,0.05)  Deviation = 0 Unit vector = (0,0) F = (0,0,0) 
 At (1.575,0.475,0.05)  Deviation = -0 Unit vector = (0,0) F = (0,0,0) 
 At (1.625,0.475,0.05)  Deviation = 8.78397e-19 Unit vector = (0,0) F = (0,0,0) 
 At (1.675,0.475,0.05)  Deviation = 1.20198e-21 Unit vector = (0,0) F = (0,0,0) 
 At (1.725,0.475,0.05)  Deviation = 1.10844e-18 Unit vector = (0,0) F = (0,0,0) 
 At (1.775,0.475,0.05)  Deviation = -2.93134e-21 Unit vector = (0,0) F = (0,0,0) 
 At (1.825,0.475,0.05)  Deviation = 0 Unit vector = (0,0) F = (0,0,0) 
 At (1.875,0.475,0.05)  Deviation = 2.97544e-21 Unit vector = (0,0) F = (0,0,0) 
 At (1.925,0.475,0.05)  Deviation = 0 Unit vector = (0,0) F = (0,0,0) 
 At (1.975,0.475,0.05)  Deviation = -2.58652e-21 Unit vector = (0,0) F = (0,0,0) 
 At (0.025,0.525,0.05)  Deviation = 0 Unit vector = (0,0) F = (0,0,0) 
 At (0.075,0.525,0.05)  Deviation = 0 Unit vector = (0,0) F = (0,0,0) 
 At (0.125,0.525,0.05)  Deviation = 7.38396e-19 Unit vector = (0,0) F = (0,0,0) 
 At (0.175,0.525,0.05)  Deviation = -0 Unit vector = (0,0) F = (0,0,0) 
 At (0.225,0.525,0.05)  Deviation = 1.03576e-18 Unit vector = (0,0) F = (0,0,0) 
 At (0.275,0.525,0.05)  Deviation = 1.41032e-22 Unit vector = (0,0) F = (0,0,0) 
 At (0.325,0.525,0.05)  Deviation = -3.21762e-19 Unit vector = (0,0) F = (0,0,0) 
 At (0.375,0.525,0.05)  Deviation = -1.88013e-19 Unit vector = (0,0) F = (0,0,0) 
 At (0.425,0.525,0.05)  Deviation = 0 Unit vector = (0,0) F = (0,0,0) 
 At (0.475,0.525,0.05)  Deviation = 0 Unit vector = (0,0) F = (0,0,0) 
 At (0.525,0.525,0.05)  Deviation = 0.00349838 Unit vector = (0.00499443,0.999964) F = (-0.0191934,-5.48635,0) 
 At (0.575,0.525,0.05)  Deviation = 0.00775072 Unit vector = (0.0149664,0.999846) F = (-0.0942017,-12.1537,0) 
 At (0.625,0.525,0.05)  Deviation = 0.0101282 Unit vector = (0.0248977,0.999648) F = (-0.160873,-15.8831,0) 
 At (0.675,0.525,0.05)  Deviation = 0.0114305 Unit vector = (0.0347597,0.999355) F = (-0.204976,-17.9315,0) 
 At (0.725,0.525,0.05)  Deviation = 0.0121075 Unit vector = (0.0445251,0.998969) F = (-0.230113,-19.0048,0) 
 At (0.775,0.525,0.05)  Deviation = 0.0124125 Unit vector = (0.0541674,0.998494) F = (-0.242051,-19.4996,0) 
 At (0.825,0.525,0.05)  Deviation = 0.0124884 Unit vector = (0.0636604,0.997935) F = (-0.245278,-19.6395,0) 
 At (0.875,0.525,0.05)  Deviation = 0.0124164 Unit vector = (0.0729788,0.997299) F = (-0.242768,-19.5512,0) 
 At (0.925,0.525,0.05)  Deviation = 0.0122436 Unit vector = (0.0820981,0.996592) F = (-0.236404,-19.3075,0) 
 At (0.975,0.525,0.05)  Deviation = 0.0119979 Unit vector = (0.0909948,0.995822) F = (-0.22739,-18.9515,0) 
 At (1.025,0.525,0.05)  Deviation = 0.0116974 Unit vector = (0.0996465,0.994997) F = (-0.216531,-18.5102,0) 
 At (1.075,0.525,0.05)  Deviation = 0.0113546 Unit vector = (0.108032,0.994124) F = (-0.204422,-18.0027,0) 
 At (1.125,0.525,0.05)  Deviation = 0.0109802 Unit vector = (0.116131,0.993214) F = (-0.19155,-17.4444,0) 
 At (1.175,0.525,0.05)  Deviation = 0.0105841 Unit vector = (0.123925,0.992275) F = (-0.178352,-16.8503,0) 
 At (1.225,0.525,0.05)  Deviation = 0.0101765 Unit vector = (0.131396,0.991317) F = (-0.165232,-16.2361,0) 
 At (1.275,0.525,0.05)  Deviation = 0.00976672 Unit vector = (0.138528,0.99035) F = (-0.152529,-15.6167,0) 
 At (1.325,0.525,0.05)  Deviation = 0.00935837 Unit vector = (0.145299,0.989382) F = (-0.140361,-14.998,0) 
 At (1.375,0.525,0.05)  Deviation = 0.00894727 Unit vector = (0.151683,0.988424) F = (-0.128598,-14.3725,0) 
 At (1.425,0.525,0.05)  Deviation = 0.00854443 Unit vector = (0.157674,0.987487) F = (-0.117559,-13.7583,0) 
 At (1.475,0.525,0.05)  Deviation = 0.00814531 Unit vector = (0.163264,0.986578) F = (-0.107084,-13.1464,0) 
 At (1.525,0.525,0.05)  Deviation = 0 Unit vector = (0,0) F = (0,0,0) 
 At (1.575,0.525,0.05)  Deviation = 0 Unit vector = (0,0) F = (0,0,0) 
 At (1.625,0.525,0.05)  Deviation = 1.30547e-20 Unit vector = (0,0) F = (0,0,0) 
 At (1.675,0.525,0.05)  Deviation = 4.49453e-21 Unit vector = (0,0) F = (0,0,0) 
 At (1.725,0.525,0.05)  Deviation = 0 Unit vector = (0,0) F = (0,0,0) 
 At (1.775,0.525,0.05)  Deviation = -1.6941e-20 Unit vector = (0,0) F = (0,0,0) 
 At (1.825,0.525,0.05)  Deviation = 1.78015e-20 Unit vector = (0,0) F = (0,0,0) 
 At (1.875,0.525,0.05)  Deviation = 5.5917e-20 Unit vector = (0,0) F = (0,0,0) 
 At (1.925,0.525,0.05)  Deviation = -1.96015e-20 Unit vector = (0,0) F = (0,0,0) 
 At (1.975,0.525,0.05)  Deviation = 0 Unit vector = (0,0) F = (0,0,0) 
 At (0.025,0.575,0.05)  Deviation = -2.08194e-20 Unit vector = (0,0) F = (0,0,0) 
 At (0.075,0.575,0.05)  Deviation = 4.74027e-20 Unit vector = (0,0) F = (0,0,0) 
 At (0.125,0.575,0.05)  Deviation = 2.13434e-20 Unit vector = (0,0) F = (0,0,0) 
 At (0.175,0.575,0.05)  Deviation = 5.70623e-20 Unit vector = (0,0) F = (0,0,0) 
 At (0.225,0.575,0.05)  Deviation = -2.11247e-20 Unit vector = (0,0) F = (0,0,0) 
 At (0.275,0.575,0.05)  Deviation = 6.71665e-20 Unit vector = (0,0) F = (0,0,0) 
 At (0.325,0.575,0.05)  Deviation = 4.03824e-20 Unit vector = (0,0) F = (0,0,0) 
 At (0.375,0.575,0.05)  Deviation = 7.78181e-20 Unit vector = (0,0) F = (0,0,0) 
 At (0.425,0.575,0.05)  Deviation = -1.86151e-20 Unit vector = (0,0) F = (0,0,0) 
 At (0.475,0.575,0.05)  Deviation = -0 Unit vector = (0,0) F = (0,0,0) 
 At (0.525,0.575,0.05)  Deviation = 0.00352852 Unit vector = (0.00499638,0.99997) F = (-0.019536,-5.53659,0) 
 At (0.575,0.575,0.05)  Deviation = 0.00777709 Unit vector = (0.0149749,0.999866) F = (-0.0949006,-12.2023,0) 
 At (0.625,0.575,0.05)  Deviation = 0.0101531 Unit vector = (0.0249122,0.999668) F = (-0.161765,-15.9321,0) 
 At (0.675,0.575,0.05)  Deviation = 0.0114555 Unit vector = (0.0347806,0.999375) F = (-0.206,-17.9819,0) 
 At (0.725,0.575,0.05)  Deviation = 0.0121334 Unit vector = (0.0445534,0.998989) F = (-0.231235,-19.0568,0) 
 At (0.775,0.575,0.05)  Deviation = 0.0124398 Unit vector = (0.0542037,0.998514) F = (-0.243254,-19.5535,0) 
 At (0.825,0.575,0.05)  Deviation = 0.0125176 Unit vector = (0.0637057,0.997955) F = (-0.246556,-19.6957,0) 
 At (0.875,0.575,0.05)  Deviation = 0.0124476 Unit vector = (0.0730328,0.997318) F = (-0.244101,-19.6092,0) 
 At (0.925,0.575,0.05)  Deviation = 0.0122748 Unit vector = (0.0821571,0.996609) F = (-0.237703,-19.3642,0) 
 At (0.975,0.575,0.05)  Deviation = 0.0120288 Unit vector = (0.0910566,0.995836) F = (-0.22863,-19.0061,0) 
 At (1.025,0.575,0.05)  Deviation = 0.0117275 Unit vector = (0.0997091,0.995007) F = (-0.2177,-18.5623,0) 
 At (1.075,0.575,0.05)  Deviation = 0.0113829 Unit vector = (0.108093,0.994132) F = (-0.205477,-18.0506,0) 
 At (1.125,0.575,0.05)  Deviation = 0.0110027 Unit vector = (0.116183,0.993219) F = (-0.192354,-17.4818,0) 
 At (1.175,0.575,0.05)  Deviation = 0.0105924 Unit vector = (0.123954,0.992277) F = (-0.178636,-16.864,0) 
 At (1.225,0.575,0.05)  Deviation = 0.0101673 Unit vector = (0.131395,0.991317) F = (-0.164929,-16.2209,0) 
 At (1.275,0.575,0.05)  Deviation = 0.00973826 Unit vector = (0.138492,0.99035) F = (-0.151628,-15.5698,0) 
 At (1.325,0.575,0.05)  Deviation = 0.00931268 Unit vector = (0.145229,0.989384) F = (-0.138975,-14.9228,0) 
 At (1.375,0.575,0.05)  Deviation = 0.00889409 Unit vector = (0.151592,0.988429) F = (-0.127053,-14.2847,0) 
 At (1.425,0.575,0.05)  Deviation = 0.00848765 Unit vector = (0.15757,0.987494) F = (-0.115979,-13.6641,0) 
 At (1.475,0.575,0.05)  Deviation = 0.00813345 Unit vector = (0.163221,0.986582) F = (-0.106749,-13.1244,0) 
 At (1.525,0.575,0.05)  Deviation = -0 Unit vector = (0,0) F = (0,0,0) 
 At (1.575,0.575,0.05)  Deviation = 8.79631e-19 Unit vector = (0,0) F = (0,0,0) 
 At (1.625,0.575,0.05)  Deviation = 0 Unit vector = (0,0) F = (0,0,0) 
 At (1.675,0.575,0.05)  Deviation = -1.10962e-18 Unit vector = (0,0) F = (0,0,0) 
 At (1.725,0.575,0.05)  Deviation = 0 Unit vector = (0,0) F = (0,0,0) 
 At (1.775,0.575,0.05)  Deviation = 1.20793e-18 Unit vector = (0,0) F = (0,0,0) 
 At (1.825,0.575,0.05)  Deviation = -1.17084e-21 Unit vector = (0,0) F = (0,0,0) 
 At (1.875,0.575,0.05)  Deviation = -2.28088e-18 Unit vector = (0,0) F = (0,0,0) 
 At (1.925,0.575,0.05)  Deviation = 9.96347e-22 Unit vector = (0,0) F = (0,0,0) 
 At (1.975,0.575,0.05)  Deviation = 9.61127e-19 Unit vector = (0,0) F = (0,0,0) 
 At (0.025,0.625,0.05)  Deviation = 0 Unit vector = (0,0) F = (0,0,0) 
 At (0.075,0.625,0.05)  Deviation = 7.37461e-19 Unit vector = (0,0) F = (0,0,0) 
 At (0.125,0.625,0.05)  Deviation = -8.51555e-22 Unit vector = (0,0) F = (0,0,0) 
 At (0.175,0.625,0.05)  Deviation = 0 Unit vector = (0,0) F = (0,0,0) 
 At (0.225,0.625,0.05)  Deviation = 2.72425e-22 Unit vector = (0,0) F = (0,0,0) 
 At (0.275,0.625,0.05)  Deviation = 1.28264e-18 Unit vector = (0,0) F = (0,0,0) 
 At (0.325,0.625,0.05)  Deviation = 0 Unit vector = (0,0) F = (0,0,0) 
 At (0.375,0.625,0.05)  Deviation = -7.16927e-22 Unit vector = (0,0) F = (0,0,0) 
 At (0.425,0.625,0.05)  Deviation = 3.4755e-23 Unit vector = (0,0) F = (0,0,0) 
 At (0.475,0.625,0.05)  Deviation = 8.97494e-22 Unit vector = (0,0) F = (0,0,0) 
 At (0.525,0.625,0.05)  Deviation = 0.00352327 Unit vector = (0.00499641,0.999971) F = (-0.0194889,-5.53146,0) 
 At (0.575,0.625,0.05)  Deviation = 0.00777753 Unit vector = (0.0149747,0.999865) F = (-0.0949712,-12.2107,0) 
 At (0.625,0.625,0.05)  Deviation = 0.0101584 Unit vector = (0.0249109,0.999667) F = (-0.162044,-15.9511,0) 
 At (0.675,0.625,0.05)  Deviation = 0.0114647 Unit vector = (0.0347768,0.999371) F = (-0.206468,-18.0083,0) 
 At (0.725,0.625,0.05)  Deviation = 0.0121449 Unit vector = (0.0445449,0.998983) F = (-0.231823,-19.0872,0) 
 At (0.775,0.625,0.05)  Deviation = 0.0124519 Unit vector = (0.0541883,0.998505) F = (-0.243876,-19.5844,0) 
 At (0.825,0.625,0.05)  Deviation = 0.0125286 Unit vector = (0.0636806,0.997944) F = (-0.247126,-19.7238,0) 
 At (0.875,0.625,0.05)  Deviation = 0.0124564 Unit vector = (0.0729964,0.997306) F = (-0.244562,-19.6325,0) 
 At (0.925,0.625,0.05)  Deviation = 0.012282 Unit vector = (0.082111,0.996596) F = (-0.238079,-19.3834,0) 
 At (0.975,0.625,0.05)  Deviation = 0.0120334 Unit vector = (0.0910009,0.995823) F = (-0.228882,-19.0196,0) 
 At (1.025,0.625,0.05)  Deviation = 0.011728 Unit vector = (0.0996432,0.994996) F = (-0.217771,-18.5676,0) 
 At (1.075,0.625,0.05)  Deviation = 0.0113779 Unit vector = (0.108016,0.994122) F = (-0.205328,-18.0454,0) 
 At (1.125,0.625,0.05)  Deviation = 0.010993 Unit vector = (0.1161,0.993211) F = (-0.192028,-17.4675,0) 
 At (1.175,0.625,0.05)  Deviation = 0.0105824 Unit vector = (0.123875,0.992273) F = (-0.178296,-16.8478,0) 
 At (1.225,0.625,0.05)  Deviation = 0.0101559 Unit vector = (0.131323,0.991315) F = (-0.164544,-16.2013,0) 
 At (1.275,0.625,0.05)  Deviation = 0.00972357 Unit vector = (0.138428,0.99035) F = (-0.15115,-15.5442,0) 
 At (1.325,0.625,0.05)  Deviation = 0.00929437 Unit vector = (0.145174,0.989385) F = (-0.138404,-14.8908,0) 
 At (1.375,0.625,0.05)  Deviation = 0.00887398 Unit vector = (0.151547,0.988431) F = (-0.126453,-14.2495,0) 
 At (1.425,0.625,0.05)  Deviation = 0.00847089 Unit vector = (0.157539,0.987497) F = (-0.115498,-13.6344,0) 
 At (1.475,0.625,0.05)  Deviation = 0.00813012 Unit vector = (0.163213,0.986583) F = (-0.106643,-13.1167,0) 
 At (1.525,0.625,0.05)  Deviation = 7.09935e-21 Unit vector = (0,0) F = (0,0,0) 
 At (1.575,0.625,0.05)  Deviation = 0 Unit vector = (0,0) F = (0,0,0) 
 At (1.625,0.625,0.05)  Deviation = -8.74873e-21 Unit vector = (0,0) F = (0,0,0) 
 At (1.675,0.625,0.05)  Deviation = -3.20005e-20 Unit vector = (0,0) F = (0,0,0) 
 At (1.725,0.625,0.05)  Deviation = 0 Unit vector = (0,0) F = (0,0,0) 
 At (1.775,0.625,0.05)  Deviation = 3.43895e-20 Unit vector = (0,0) F = (0,0,0) 
 At (1.825,0.625,0.05)  Deviation = 0 Unit vector = (0,0) F = (0,0,0) 
 At (1.875,0.625,0.05)  Deviation = 1.7921e-20 Unit vector = (0,0) F = (0,0,0) 
 At (1.925,0.625,0.05)  Deviation = -0 Unit vector = (0,0) F = (0,0,0) 
 At (1.975,0.625,0.05)  Deviation = -5.442e-20 Unit vector = (0,0) F = (0,0,0) 
 At (0.025,0.675,0.05)  Deviation = -4.81452e-20 Unit vector = (0,0) F = (0,0,0) 
 At (0.075,0.675,0.05)  Deviation = 3.56522e-20 Unit vector = (0,0) F = (0,0,0) 
 At (0.125,0.675,0.05)  Deviation = -5.67297e-20 Unit vector = (0,0) F = (0,0,0) 
 At (0.175,0.675,0.05)  Deviation = -3.39739e-20 Unit vector = (0,0) F = (0,0,0) 
 At (0.225,0.675,0.05)  Deviation = -6.57636e-20 Unit vector = (0,0) F = (0,0,0) 
 At (0.275,0.675,0.05)  Deviation = 3.13372e-20 Unit vector = (0,0) F = (0,0,0) 
 At (0.325,0.675,0.05)  Deviation = -7.54285e-20 Unit vector = (0,0) F = (0,0,0) 
 At (0.375,0.675,0.05)  Deviation = -1.39371e-20 Unit vector = (0,0) F = (0,0,0) 
 At (0.425,0.675,0.05)  Deviation = 0 Unit vector = (0,0) F = (0,0,0) 
 At (0.475,0.675,0.05)  Deviation = 0 Unit vector = (0,0) F = (0,0,0) 
 At (0.525,0.675,0.05)  Deviation = 0.00347892 Unit vector = (0.00499444,0.999964) F = (-0.0190122,-5.46494,0) 
 At (0.575,0.675,0.05)  Deviation = 0.00774929 Unit vector = (0.0149664,0.999846) F = (-0.0943437,-12.1743,0) 
 At (0.625,0.675,0.05)  Deviation = 0.010144 Unit vector = (0.0248974,0.999648) F = (-0.161695,-15.9394,0) 
 At (0.675,0.675,0.05)  Deviation = 0.0114625 Unit vector = (0.0347587,0.999354) F = (-0.206532,-18.0173,0) 
 At (0.725,0.675,0.05)  Deviation = 0.012154 Unit vector = (0.044523,0.998967) F = (-0.232328,-19.1144,0) 
 At (0.775,0.675,0.05)  Deviation = 0.0124714 Unit vector = (0.0541635,0.998492) F = (-0.244797,-19.6276,0) 
 At (0.825,0.675,0.05)  Deviation = 0.0125576 Unit vector = (0.0636538,0.997932) F = (-0.248414,-19.7809,0) 
 At (0.875,0.675,0.05)  Deviation = 0.0124938 Unit vector = (0.0729686,0.997296) F = (-0.24616,-19.7016,0) 
 At (0.925,0.675,0.05)  Deviation = 0.0123269 Unit vector = (0.0820833,0.996588) F = (-0.239931,-19.4629,0) 
 At (0.975,0.675,0.05)  Deviation = 0.0120849 Unit vector = (0.0909743,0.995818) F = (-0.230927,-19.1078,0) 
 At (1.025,0.675,0.05)  Deviation = 0.0117848 Unit vector = (0.099619,0.994992) F = (-0.219946,-18.6627,0) 
 At (1.075,0.675,0.05)  Deviation = 0.0114387 Unit vector = (0.107996,0.99412) F = (-0.207568,-18.1453,0) 
 At (1.125,0.675,0.05)  Deviation = 0.0110564 Unit vector = (0.116085,0.99321) F = (-0.194272,-17.5703,0) 
 At (1.175,0.675,0.05)  Deviation = 0.0106475 Unit vector = (0.123867,0.992272) F = (-0.180506,-16.9523,0) 
 At (1.225,0.675,0.05)  Deviation = 0.0102222 Unit vector = (0.131324,0.991315) F = (-0.166696,-16.3067,0) 
 At (1.275,0.675,0.05)  Deviation = 0.00979038 Unit vector = (0.138439,0.99035) F = (-0.153223,-15.6499,0) 
 At (1.325,0.675,0.05)  Deviation = 0.00936092 Unit vector = (0.145196,0.989385) F = (-0.140379,-14.9958,0) 
 At (1.375,0.675,0.05)  Deviation = 0.00893904 Unit vector = (0.151582,0.988429) F = (-0.128298,-14.3522,0) 
 At (1.425,0.675,0.05)  Deviation = 0.00853014 Unit vector = (0.157583,0.987493) F = (-0.117104,-13.7279,0) 
 At (1.475,0.675,0.05)  Deviation = 0.00816102 Unit vector = (0.163234,0.986581) F = (-0.107439,-13.1646,0) 
 At (1.525,0.675,0.05)  Deviation = -1.76237e-18 Unit vector = (0,0) F = (0,0,0) 
 At (1.575,0.675,0.05)  Deviation = 1.01346e-21 Unit vector = (0,0) F = (0,0,0) 
 At (1.625,0.675,0.05)  Deviation = 1.1107e-18 Unit vector = (0,0) F = (0,0,0) 
 At (1.675,0.675,0.05)  Deviation = -1.0959e-21 Unit vector = (0,0) F = (0,0,0) 
 At (1.725,0.675,0.05)  Deviation = -1.20844e-18 Unit vector = (0,0) F = (0,0,0) 
 At (1.775,0.675,0.05)  Deviation = 2.0806e-21 Unit vector = (0,0) F = (0,0,0) 
 At (1.825,0.675,0.05)  Deviation = 2.28078e-18 Unit vector = (0,0) F = (0,0,0) 
 At (1.875,0.675,0.05)  Deviation = 0 Unit vector = (0,0) F = (0,0,0) 
 At (1.925,0.675,0.05)  Deviation = -9.60619e-19 Unit vector = (0,0) F = (0,0,0) 
 At (1.975,0.675,0.05)  Deviation = -1.29226e-21 Unit vector = (0,0) F = (0,0,0) 
 At (0.025,0.725,0.05)  Deviation = -1.4733e-18 Unit vector = (0,0) F = (0,0,0) 
 At (0.075,0.725,0.05)  Deviation = 3.93358e-22 Unit vector = (0,0) F = (0,0,0) 
 At (0.125,0.725,0.05)  Deviation = -1.03166e-18 Unit vector = (0,0) F = (0,0,0) 
 At (0.175,0.725,0.05)  Deviation = 0 Unit vector = (0,0) F = (0,0,0) 
 At (0.225,0.725,0.05)  Deviation = -9.59215e-19 Unit vector = (0,0) F = (0,0,0) 
 At (0.275,0.725,0.05)  Deviation = 1.86927e-19 Unit vector = (0,0) F = (0,0,0) 
 At (0.325,0.725,0.05)  Deviation = 8.10927e-22 Unit vector = (0,0) F = (0,0,0) 
 At (0.375,0.725,0.05)  Deviation = 0 Unit vector = (0,0) F = (0,0,0) 
 At (0.425,0.725,0.05)  Deviation = 0 Unit vector = (0,0) F = (0,0,0) 
 At (0.475,0.725,0.05)  Deviation = 0 Unit vector = (0,0) F = (0,0,0) 
 At (0.525,0.725,0.05)  Deviation = 0.00339356 Unit vector = (0.00499443,0.999964) F = (-0.0181011,-5.33394,0) 
 At (0.575,0.725,0.05)  Deviation = 0.00769942 Unit vector = (0.0149664,0.999846) F = (-0.0931959,-12.104,0) 
 At (0.625,0.725,0.05)  Deviation = 0.0101231 Unit vector = (0.0248977,0.999648) F = (-0.161147,-15.9181,0) 
 At (0.675,0.725,0.05)  Deviation = 0.0114679 Unit vector = (0.0347597,0.999355) F = (-0.206884,-18.0395,0) 
 At (0.725,0.725,0.05)  Deviation = 0.0121846 Unit vector = (0.0445251,0.998969) F = (-0.233674,-19.1769,0) 
 At (0.775,0.725,0.05)  Deviation = 0.0125263 Unit vector = (0.0541674,0.998494) F = (-0.247135,-19.7283,0) 
 At (0.825,0.725,0.05)  Deviation = 0.0126356 Unit vector = (0.0636604,0.997935) F = (-0.251686,-19.9177,0) 
 At (0.875,0.725,0.05)  Deviation = 0.0125936 Unit vector = (0.0729788,0.997299) F = (-0.250272,-19.8719,0) 
 At (0.925,0.725,0.05)  Deviation = 0.0124467 Unit vector = (0.0820981,0.996592) F = (-0.244761,-19.6636,0) 
 At (0.975,0.725,0.05)  Deviation = 0.0122224 Unit vector = (0.0909948,0.995822) F = (-0.236339,-19.3355,0) 
 At (1.025,0.725,0.05)  Deviation = 0.0119376 Unit vector = (0.0996465,0.994997) F = (-0.225787,-18.9131,0) 
 At (1.075,0.725,0.05)  Deviation = 0.0116032 Unit vector = (0.108032,0.994124) F = (-0.213663,-18.4132,0) 
 At (1.125,0.725,0.05)  Deviation = 0.0112282 Unit vector = (0.116131,0.993214) F = (-0.200417,-17.8487,0) 
 At (1.175,0.725,0.05)  Deviation = 0.0108214 Unit vector = (0.123925,0.992275) F = (-0.18649,-17.2328,0) 
 At (1.225,0.725,0.05)  Deviation = 0.0103931 Unit vector = (0.131396,0.991317) F = (-0.172343,-16.5818,0) 
 At (1.275,0.725,0.05)  Deviation = 0.00995446 Unit vector = (0.138528,0.99035) F = (-0.158415,-15.9134,0) 
 At (1.325,0.725,0.05)  Deviation = 0.00951178 Unit vector = (0.145299,0.989382) F = (-0.144942,-15.2377,0) 
 At (1.375,0.725,0.05)  Deviation = 0.00906414 Unit vector = (0.151683,0.988424) F = (-0.131908,-14.5523,0) 
 At (1.425,0.725,0.05)  Deviation = 0.0086263 Unit vector = (0.157674,0.987487) F = (-0.119745,-13.881,0) 
 At (1.475,0.725,0.05)  Deviation = 0.00819728 Unit vector = (0.163264,0.986578) F = (-0.108375,-13.2205,0) 
 At (1.525,0.725,0.05)  Deviation = -1.46342e-20 Unit vector = (0,0) F = (0,0,0) 
 At (1.575,0.725,0.05)  Deviation = 1.17751e-20 Unit vector = (0,0) F = (0,0,0) 
 At (1.625,0.725,0.05)  Deviation = 6.19372e-20 Unit vector = (0,0) F = (0,0,0) 
 At (1.675,0.725,0.05)  Deviation = 2.23975e-20 Unit vector = (0,0) F = (0,0,0) 
 At (1.725,0.725,0.05)  Deviation = -1.58209e-20 Unit vector = (0,0) F = (0,0,0) 
 At (1.775,0.725,0.05)  Deviation = -3.15759e-20 Unit vector = (0,0) F = (0,0,0) 
 At (1.825,0.725,0.05)  Deviation = -4.70493e-20 Unit vector = (0,0) F = (0,0,0) 
 At (1.875,0.725,0.05)  Deviation = 0 Unit vector = (0,0) F = (0,0,0) 
 At (1.925,0.725,0.05)  Deviation = 1.5106e-20 Unit vector = (0,0) F = (0,0,0) 
 At (1.975,0.725,0.05)  Deviation = 4.7252e-20 Unit vector = (0,0) F = (0,0,0) 
 At (0.025,0.775,0.05)  Deviation = -1.4129e-20 Unit vector = (0,0) F = (0,0,0) 
 At (0.075,0.775,0.05)  Deviation = 5.50168e-20 Unit vector = (0,0) F = (0,0,0) 
 At (0.125,0.775,0.05)  Deviation = 2.56046e-20 Unit vector = (0,0) F = (0,0,0) 
 At (0.175,0.775,0.05)  Deviation = 0 Unit vector = (0,0) F = (0,0,0) 
 At (0.225,0.775,0.05)  Deviation = -0 Unit vector = (0,0) F = (0,0,0) 
 At (0.275,0.775,0.05)  Deviation = 1.44765e-19 Unit vector = (0,0) F = (0,0,0) 
 At (0.325,0.775,0.05)  Deviation = 0 Unit vector = (0,0) F = (0,0,0) 
 At (0.375,0.775,0.05)  Deviation = 0 Unit vector = (0,0) F = (0,0,0) 
 At (0.425,0.775,0.05)  Deviation = 7.39448e-21 Unit vector = (0,0) F = (0,0,0) 
 At (0.475,0.775,0.05)  Deviation = 1.8581e-19 Unit vector = (0,0) F = (0,0,0) 
 At (0.525,0.775,0.05)  Deviation = 0.00325765 Unit vector = (0.00499638,0.99997) F = (-0.0166899,-5.12327,0) 
 At (0.575,0.775,0.05)  Deviation = 0.00761678 Unit vector = (0.0149749,0.999866) F = (-0.0912699,-11.9825,0) 
 At (0.625,0.775,0.05)  Deviation = 0.0100835 Unit vector = (0.0249122,0.999668) F = (-0.160017,-15.8685,0) 
 At (0.675,0.775,0.05)  Deviation = 0.011468 Unit vector = (0.0347806,0.999375) F = (-0.207067,-18.0552,0) 
 At (0.725,0.775,0.05)  Deviation = 0.012223 Unit vector = (0.0445534,0.998989) F = (-0.235365,-19.2549,0) 
 At (0.775,0.775,0.05)  Deviation = 0.0126018 Unit vector = (0.0542037,0.998514) F = (-0.250355,-19.8656,0) 
 At (0.825,0.775,0.05)  Deviation = 0.0127462 Unit vector = (0.0637057,0.997955) F = (-0.256348,-20.1106,0) 
 At (0.875,0.775,0.05)  Deviation = 0.012736 Unit vector = (0.0730328,0.997318) F = (-0.256195,-20.1147,0) 
 At (0.925,0.775,0.05)  Deviation = 0.0126153 Unit vector = (0.0821571,0.996609) F = (-0.251654,-19.9472,0) 
 At (0.975,0.775,0.05)  Deviation = 0.012413 Unit vector = (0.0910566,0.995836) F = (-0.243964,-19.6529,0) 
 At (1.025,0.775,0.05)  Deviation = 0.012146 Unit vector = (0.0997091,0.995007) F = (-0.233917,-19.2578,0) 
 At (1.075,0.775,0.05)  Deviation = 0.0118238 Unit vector = (0.108093,0.994132) F = (-0.222011,-18.7757,0) 
 At (1.125,0.775,0.05)  Deviation = 0.01145 Unit vector = (0.116183,0.993219) F = (-0.20853,-18.2114,0) 
 At (1.175,0.775,0.05)  Deviation = 0.011027 Unit vector = (0.123954,0.992277) F = (-0.193732,-17.5681,0) 
 At (1.225,0.775,0.05)  Deviation = 0.01057 Unit vector = (0.131395,0.991317) F = (-0.178315,-16.8693,0) 
 At (1.275,0.775,0.05)  Deviation = 0.0100923 Unit vector = (0.138492,0.99035) F = (-0.162863,-16.1367,0) 
 At (1.325,0.775,0.05)  Deviation = 0.00960634 Unit vector = (0.145229,0.989384) F = (-0.147845,-15.3899,0) 
 At (1.375,0.775,0.05)  Deviation = 0.00912196 Unit vector = (0.151592,0.988429) F = (-0.133585,-14.6439,0) 
 At (1.425,0.775,0.05)  Deviation = 0.00865156 Unit vector = (0.15757,0.987494) F = (-0.120423,-13.9188,0) 
 At (1.475,0.775,0.05)  Deviation = 0.00824198 Unit vector = (0.163221,0.986582) F = (-0.109527,-13.2887,0) 
 At (1.525,0.775,0.05)  Deviation = -9.18772e-22 Unit vector = (0,0) F = (0,0,0) 
 At (1.575,0.775,0.05)  Deviation = 0 Unit vector = (0,0) F = (0,0,0) 
 At (1.625,0.775,0.05)  Deviation = 0 Unit vector = (0,0) F = (0,0,0) 
 At (1.675,0.775,0.05)  Deviation = 0 Unit vector = (0,0) F = (0,0,0) 
 At (1.725,0.775,0.05)  Deviation = 1.81855e-21 Unit vector = (0,0) F = (0,0,0) 
 At (1.775,0.775,0.05)  Deviation = 0 Unit vector = (0,0) F = (0,0,0) 
 At (1.825,0.775,0.05)  Deviation = -1.50669e-21 Unit vector = (0,0) F = (0,0,0) 
 At (1.875,0.775,0.05)  Deviation = 0 Unit vector = (0,0) F = (0,0,0) 
 At (1.925,0.775,0.05)  Deviation = 5.48722e-22 Unit vector = (0,0) F = (0,0,0) 
 At (1.975,0.775,0.05)  Deviation = 7.35941e-19 Unit vector = (0,0) F = (0,0,0) 
 At (0.025,0.825,0.05)  Deviation = -3.32741e-22 Unit vector = (0,0) F = (0,0,0) 
 At (0.075,0.825,0.05)  Deviation = 5.15041e-19 Unit vector = (0,0) F = (0,0,0) 
 At (0.125,0.825,0.05)  Deviation = -0 Unit vector = (0,0) F = (0,0,0) 
 At (0.175,0.825,0.05)  Deviation = 0 Unit vector = (0,0) F = (0,0,0) 
 At (0.225,0.825,0.05)  Deviation = -1.86437e-19 Unit vector = (0,0) F = (0,0,0) 
 At (0.275,0.825,0.05)  Deviation = 0 Unit vector = (0,0) F = (0,0,0) 
 At (0.325,0.825,0.05)  Deviation = -2.94843e-23 Unit vector = (0,0) F = (0,0,0) 
 At (0.375,0.825,0.05)  Deviation = 3.99114e-21 Unit vector = (0,0) F = (0,0,0) 
 At (0.425,0.825,0.05)  Deviation = -3.71389e-22 Unit vector = (0,0) F = (0,0,0) 
 At (0.475,0.825,0.05)  Deviation = -1.61888e-21 Unit vector = (0,0) F = (0,0,0) 
 At (0.525,0.825,0.05)  Deviation = 0.00305336 Unit vector = (0.00499641,0.999971) F = (-0.0146701,-4.80455,0) 
 At (0.575,0.825,0.05)  Deviation = 0.00747042 Unit vector = (0.0149747,0.999865) F = (-0.0878577,-11.7605,0) 
 At (0.625,0.825,0.05)  Deviation = 0.00998413 Unit vector = (0.0249109,0.999667) F = (-0.15701,-15.7255,0) 
 At (0.675,0.825,0.05)  Deviation = 0.0114126 Unit vector = (0.0347768,0.999371) F = (-0.205268,-17.9854,0) 
 At (0.725,0.825,0.05)  Deviation = 0.0122104 Unit vector = (0.0445449,0.998983) F = (-0.235128,-19.2555,0) 
 At (0.775,0.825,0.05)  Deviation = 0.0126301 Unit vector = (0.0541883,0.998505) F = (-0.251765,-19.9327,0) 
 At (0.825,0.825,0.05)  Deviation = 0.0128122 Unit vector = (0.0636806,0.997944) F = (-0.25931,-20.2382,0) 
 At (0.875,0.825,0.05)  Deviation = 0.0128356 Unit vector = (0.0729964,0.997306) F = (-0.260526,-20.296,0) 
 At (0.925,0.825,0.05)  Deviation = 0.012746 Unit vector = (0.082111,0.996596) F = (-0.257197,-20.1775,0) 
 At (0.975,0.825,0.05)  Deviation = 0.0125713 Unit vector = (0.0910009,0.995823) F = (-0.250514,-19.9263,0) 
 At (1.025,0.825,0.05)  Deviation = 0.0123307 Unit vector = (0.0996432,0.994996) F = (-0.241346,-19.5718,0) 
 At (1.075,0.825,0.05)  Deviation = 0.0120345 Unit vector = (0.108016,0.994122) F = (-0.230223,-19.1294,0) 
 At (1.125,0.825,0.05)  Deviation = 0.0116832 Unit vector = (0.1161,0.993211) F = (-0.2173,-18.5986,0) 
 At (1.175,0.825,0.05)  Deviation = 0.0112771 Unit vector = (0.123875,0.992273) F = (-0.202764,-17.9794,0) 
 At (1.225,0.825,0.05)  Deviation = 0.0108223 Unit vector = (0.131323,0.991315) F = (-0.187026,-17.2809,0) 
 At (1.275,0.825,0.05)  Deviation = 0.01033 Unit vector = (0.138428,0.99035) F = (-0.170674,-16.5217,0) 
 At (1.325,0.825,0.05)  Deviation = 0.00981431 Unit vector = (0.145174,0.989385) F = (-0.15433,-15.7245,0) 
 At (1.375,0.825,0.05)  Deviation = 0.00929051 Unit vector = (0.151547,0.988431) F = (-0.138553,-14.9129,0) 
 At (1.425,0.825,0.05)  Deviation = 0.00877966 Unit vector = (0.157539,0.987497) F = (-0.123982,-14.1212,0) 
 At (1.475,0.825,0.05)  Deviation = 0.00833987 Unit vector = (0.163213,0.986583) F = (-0.112102,-13.4414,0) 
 At (1.525,0.825,0.05)  Deviation = -0 Unit vector = (0,0) F = (0,0,0) 
 At (1.575,0.825,0.05)  Deviation = 2.92897e-20 Unit vector = (0,0) F = (0,0,0) 
 At (1.625,0.825,0.05)  Deviation = 2.31578e-20 Unit vector = (0,0) F = (0,0,0) 
 At (1.675,0.825,0.05)  Deviation = 0 Unit vector = (0,0) F = (0,0,0) 
 At (1.725,0.825,0.05)  Deviation = 3.12794e-20 Unit vector = (0,0) F = (0,0,0) 
 At (1.775,0.825,0.05)  Deviation = -2.73151e-20 Unit vector = (0,0) F = (0,0,0) 
 At (1.825,0.825,0.05)  Deviation = 0 Unit vector = (0,0) F = (0,0,0) 
 At (1.875,0.825,0.05)  Deviation = 1.25877e-20 Unit vector = (0,0) F = (0,0,0) 
 At (1.925,0.825,0.05)  Deviation = -0 Unit vector = (0,0) F = (0,0,0) 
 At (1.975,0.825,0.05)  Deviation = 0 Unit vector = (0,0) F = (0,0,0) 
 At (0.025,0.875,0.05)  Deviation = -0 Unit vector = (0,0) F = (0,0,0) 
 At (0.075,0.875,0.05)  Deviation = 1.94091e-20 Unit vector = (0,0) F = (0,0,0) 
 At (0.125,0.875,0.05)  Deviation = 1.81239e-19 Unit vector = (0,0) F = (0,0,0) 
 At (0.175,0.875,0.05)  Deviation = -1.60846e-20 Unit vector = (0,0) F = (0,0,0) 
 At (0.225,0.875,0.05)  Deviation = -0 Unit vector = (0,0) F = (0,0,0) 
 At (0.275,0.875,0.05)  Deviation = -0 Unit vector = (0,0) F = (0,0,0) 
 At (0.325,0.875,0.05)  Deviation = -0 Unit vector = (0,0) F = (0,0,0) 
 At (0.375,0.875,0.05)  Deviation = 0 Unit vector = (0,0) F = (0,0,0) 
 At (0.425,0.875,0.05)  Deviation = 0 Unit vector = (0,0) F = (0,0,0) 
 At (0.475,0.875,0.05)  Deviation = -0 Unit vector = (0,0) F = (0,0,0) 
 At (0.525,0.875,0.05)  Deviation = 0.00276476 Unit vector = (0.00499444,0.999964) F = (-0.0120328,-4.3522,0) 
 At (0.575,0.875,0.05)  Deviation = 0.00723707 Unit vector = (0.0149664,0.999846) F = (-0.0825053,-11.4002,0) 
 At (0.625,0.875,0.05)  Deviation = 0.00980019 Unit vector = (0.0248974,0.999648) F = (-0.151402,-15.4484,0) 
 At (0.675,0.875,0.05)  Deviation = 0.0112817 Unit vector = (0.0347587,0.999354) F = (-0.200791,-17.7972,0) 
 At (0.725,0.875,0.05)  Deviation = 0.0121376 Unit vector = (0.044523,0.998967) F = (-0.232608,-19.1633,0) 
 At (0.775,0.875,0.05)  Deviation = 0.0126185 Unit vector = (0.0541635,0.998492) F = (-0.251634,-19.9406,0) 
 At (0.825,0.875,0.05)  Deviation = 0.0128619 Unit vector = (0.0636538,0.997932) F = (-0.261694,-20.3453,0) 
 At (0.875,0.875,0.05)  Deviation = 0.0129437 Unit vector = (0.0729686,0.997296) F = (-0.265321,-20.4969,0) 
 At (0.925,0.875,0.05)  Deviation = 0.0129073 Unit vector = (0.0820833,0.996588) F = (-0.264141,-20.4634,0) 
 At (0.975,0.875,0.05)  Deviation = 0.0127803 Unit vector = (0.0909743,0.995818) F = (-0.259304,-20.2882,0) 
 At (1.025,0.875,0.05)  Deviation = 0.0125892 Unit vector = (0.099619,0.994992) F = (-0.251956,-20.0125,0) 
 At (1.075,0.875,0.05)  Deviation = 0.0123506 Unit vector = (0.107996,0.99412) F = (-0.242835,-19.6609,0) 
 At (1.125,0.875,0.05)  Deviation = 0.0120578 Unit vector = (0.116085,0.99321) F = (-0.231774,-19.221,0) 
 At (1.175,0.875,0.05)  Deviation = 0.0117015 Unit vector = (0.123867,0.992272) F = (-0.218565,-18.6775,0) 
 At (1.225,0.875,0.05)  Deviation = 0.0112801 Unit vector = (0.131324,0.991315) F = (-0.203362,-18.0276,0) 
 At (1.275,0.875,0.05)  Deviation = 0.0107974 Unit vector = (0.138439,0.99035) F = (-0.186569,-17.2784,0) 
 At (1.325,0.875,0.05)  Deviation = 0.0102636 Unit vector = (0.145196,0.989385) F = (-0.16881,-16.4469,0) 
 At (1.375,0.875,0.05)  Deviation = 0.00969184 Unit vector = (0.151582,0.988429) F = (-0.150752,-15.5541,0) 
 At (1.425,0.875,0.05)  Deviation = 0.0091069 Unit vector = (0.157583,0.987493) F = (-0.133333,-14.6405,0) 
 At (1.475,0.875,0.05)  Deviation = 0.00856143 Unit vector = (0.163234,0.986581) F = (-0.11806,-13.7894,0) 
 At (1.525,0.875,0.05)  Deviation = -2.22468e-18 Unit vector = (0,0) F = (0,0,0) 
 At (1.575,0.875,0.05)  Deviation = 0 Unit vector = (0,0) F = (0,0,0) 
 At (1.625,0.875,0.05)  Deviation = 1.20902e-18 Unit vector = (0,0) F = (0,0,0) 
 At (1.675,0.875,0.05)  Deviation = 0 Unit vector = (0,0) F = (0,0,0) 
 At (1.725,0.875,0.05)  Deviation = -1.1401e-18 Unit vector = (0,0) F = (0,0,0) 
 At (1.775,0.875,0.05)  Deviation = -6.00649e-22 Unit vector = (0,0) F = (0,0,0) 
 At (1.825,0.875,0.05)  Deviation = 9.59681e-19 Unit vector = (0,0) F = (0,0,0) 
 At (1.875,0.875,0.05)  Deviation = 4.19376e-22 Unit vector = (0,0) F = (0,0,0) 
 At (1.925,0.875,0.05)  Deviation = 7.35334e-19 Unit vector = (0,0) F = (0,0,0) 
 At (1.975,0.875,0.05)  Deviation = -2.38966e-22 Unit vector = (0,0) F = (0,0,0) 
 At (0.025,0.925,0.05)  Deviation = 1.02881e-18 Unit vector = (0,0) F = (0,0,0) 
 At (0.075,0.925,0.05)  Deviation = -0 Unit vector = (0,0) F = (0,0,0) 
 At (0.125,0.925,0.05)  Deviation = 6.36753e-19 Unit vector = (0,0) F = (0,0,0) 
 At (0.175,0.925,0.05)  Deviation = 0 Unit vector = (0,0) F = (0,0,0) 
 At (0.225,0.925,0.05)  Deviation = 0 Unit vector = (0,0) F = (0,0,0) 
 At (0.275,0.925,0.05)  Deviation = -2.63172e-23 Unit vector = (0,0) F = (0,0,0) 
 At (0.325,0.925,0.05)  Deviation = -3.1946e-21 Unit vector = (0,0) F = (0,0,0) 
 At (0.375,0.925,0.05)  Deviation = 3.28597e-22 Unit vector = (0,0) F = (0,0,0) 
 At (0.425,0.925,0.05)  Deviation = 3.82838e-21 Unit vector = (0,0) F = (0,0,0) 
 At (0.475,0.925,0.05)  Deviation = 0 Unit vector = (0,0) F = (0,0,0) 
 At (0.525,0.925,0.05)  Deviation = 0.00238308 Unit vector = (0.00499443,0.999964) F = (-0.00894118,-3.75193,0) 
 At (0.575,0.925,0.05)  Deviation = 0.00689505 Unit vector = (0.0149664,0.999846) F = (-0.074921,-10.8657,0) 
 At (0.625,0.925,0.05)  Deviation = 0.00950463 Unit vector = (0.0248977,0.999648) F = (-0.142507,-14.993,0) 
 At (0.675,0.925,0.05)  Deviation = 0.0110548 Unit vector = (0.0347597,0.999355) F = (-0.192988,-17.4568,0) 
 At (0.725,0.925,0.05)  Deviation = 0.0120002 Unit vector = (0.0445251,0.998969) F = (-0.227664,-18.9708,0) 
 At (0.775,0.925,0.05)  Deviation = 0.0125834 Unit vector = (0.0541674,0.998494) F = (-0.250623,-19.9158,0) 
 At (0.825,0.925,0.05)  Deviation = 0.012933 Unit vector = (0.0636604,0.997935) F = (-0.265057,-20.4934,0) 
 At (0.875,0.925,0.05)  Deviation = 0.0131162 Unit vector = (0.0729788,0.997299) F = (-0.272952,-20.8091,0) 
 At (0.925,0.925,0.05)  Deviation = 0.0131676 Unit vector = (0.0820981,0.996592) F = (-0.27544,-20.9168,0) 
 At (0.975,0.925,0.05)  Deviation = 0.013105 Unit vector = (0.0909948,0.995822) F = (-0.27319,-20.845,0) 
 At (1.025,0.925,0.05)  Deviation = 0.0129451 Unit vector = (0.0996465,0.994997) F = (-0.266936,-20.6194,0) 
 At (1.075,0.925,0.05)  Deviation = 0.012707 Unit vector = (0.108032,0.994124) F = (-0.257556,-20.2677,0) 
 At (1.125,0.925,0.05)  Deviation = 0.0124006 Unit vector = (0.116131,0.993214) F = (-0.245573,-19.8023,0) 
 At (1.175,0.925,0.05)  Deviation = 0.0120345 Unit vector = (0.123925,0.992275) F = (-0.231513,-19.2365,0) 
 At (1.225,0.925,0.05)  Deviation = 0.0116134 Unit vector = (0.131396,0.991317) F = (-0.215767,-18.5783,0) 
 At (1.275,0.925,0.05)  Deviation = 0.0111389 Unit vector = (0.138528,0.99035) F = (-0.198643,-17.8325,0) 
 At (1.325,0.925,0.05)  Deviation = 0.0106078 Unit vector = (0.145299,0.989382) F = (-0.180299,-16.9962,0) 
 At (1.375,0.925,0.05)  Deviation = 0.0100167 Unit vector = (0.151683,0.988424) F = (-0.160925,-16.0651,0) 
 At (1.425,0.925,0.05)  Deviation = 0.00937654 Unit vector = (0.157654,0.987488) F = (-0.141204,-15.0588,0) 
 At (1.475,0.925,0.05)  Deviation = 0.00875736 Unit vector = (0.163266,0.986578) F = (-0.123388,-14.0893,0) 
 At (1.525,0.925,0.05)  Deviation = -0 Unit vector = (0,0) F = (0,0,0) 
 At (1.575,0.925,0.05)  Deviation = 0 Unit vector = (0,0) F = (0,0,0) 
 At (1.625,0.925,0.05)  Deviation = 2.80986e-20 Unit vector = (0,0) F = (0,0,0) 
 At (1.675,0.925,0.05)  Deviation = -3.05301e-20 Unit vector = (0,0) F = (0,0,0) 
 At (1.725,0.925,0.05)  Deviation = -0 Unit vector = (0,0) F = (0,0,0) 
 At (1.775,0.925,0.05)  Deviation = -3.68953e-20 Unit vector = (0,0) F = (0,0,0) 
 At (1.825,0.925,0.05)  Deviation = -2.39331e-20 Unit vector = (0,0) F = (0,0,0) 
 At (1.875,0.925,0.05)  Deviation = 0 Unit vector = (0,0) F = (0,0,0) 
 At (1.925,0.925,0.05)  Deviation = 0 Unit vector = (0,0) F = (0,0,0) 
 At (1.975,0.925,0.05)  Deviation = -4.99408e-20 Unit vector = (0,0) F = (0,0,0) 
 At (0.025,0.975,0.05)  Deviation = -0 Unit vector = (0,0) F = (0,0,0) 
 At (0.075,0.975,0.05)  Deviation = -1.15119e-19 Unit vector = (0,0) F = (0,0,0) 
 At (0.125,0.975,0.05)  Deviation = 1.50479e-20 Unit vector = (0,0) F = (0,0,0) 
 At (0.175,0.975,0.05)  Deviation = -1.98673e-19 Unit vector = (0,0) F = (0,0,0) 
 At (0.225,0.975,0.05)  Deviation = -2.40131e-20 Unit vector = (0,0) F = (0,0,0) 
 At (0.275,0.975,0.05)  Deviation = 0 Unit vector = (0,0) F = (0,0,0) 
 At (0.325,0.975,0.05)  Deviation = 9.16056e-21 Unit vector = (0,0) F = (0,0,0) 
 At (0.375,0.975,0.05)  Deviation = -1.73758e-19 Unit vector = (0,0) F = (0,0,0) 
 At (0.425,0.975,0.05)  Deviation = 0 Unit vector = (0,0) F = (0,0,0) 
 At (0.475,0.975,0.05)  Deviation = -5.94215e-19 Unit vector = (0,0) F = (0,0,0) 
 At (0.525,0.975,0.05)  Deviation = 0.00188602 Unit vector = (0.00499638,0.99997) F = (-0.00559834,-2.96832,0) 
 At (0.575,0.975,0.05)  Deviation = 0.00627463 Unit vector = (0.0149749,0.999866) F = (-0.0620414,-9.88753,0) 
 At (0.625,0.975,0.05)  Deviation = 0.00866974 Unit vector = (0.0249122,0.999668) F = (-0.11862,-13.6817,0) 
 At (0.675,0.975,0.05)  Deviation = 0.00997958 Unit vector = (0.0347806,0.999375) F = (-0.157422,-15.7739,0) 
 At (0.725,0.975,0.05)  Deviation = 0.0107055 Unit vector = (0.0445534,0.998989) F = (-0.181452,-16.9488,0) 
 At (0.775,0.975,0.05)  Deviation = 0.0111142 Unit vector = (0.0542037,0.998514) F = (-0.195878,-17.6234,0) 
 At (0.825,0.975,0.05)  Deviation = 0.0113419 Unit vector = (0.0637057,0.997955) F = (-0.204287,-18.011,0) 
 At (0.875,0.975,0.05)  Deviation = 0.0114534 Unit vector = (0.0730328,0.997318) F = (-0.208602,-18.2124,0) 
 At (0.925,0.975,0.05)  Deviation = 0.011474 Unit vector = (0.0821571,0.996609) F = (-0.209606,-18.267,0) 
 At (0.975,0.975,0.05)  Deviation = 0.0114104 Unit vector = (0.0910566,0.995836) F = (-0.207504,-18.1847,0) 
[...]
 At (0.075,0.775,0.05)  Deviation = 1 Unit vector = (0,0) F = (0,0,0) 
 At (0.125,0.775,0.05)  Deviation = 1 Unit vector = (0,0) F = (0,0,0) 
 At (0.175,0.775,0.05)  Deviation = 1 Unit vector = (0,0) F = (0,0,0) 
 At (0.225,0.775,0.05)  Deviation = 1 Unit vector = (0,0) F = (0,0,0) 
 At (0.275,0.775,0.05)  Deviation = 1 Unit vector = (0,0) F = (0,0,0) 
 At (0.325,0.775,0.05)  Deviation = 1 Unit vector = (0,0) F = (0,0,0) 
 At (0.375,0.775,0.05)  Deviation = 1 Unit vector = (0,0) F = (0,0,0) 
 At (0.425,0.775,0.05)  Deviation = 1 Unit vector = (0,0) F = (0,0,0) 
 At (0.475,0.775,0.05)  Deviation = 1 Unit vector = (0,0) F = (0,0,0) 
 At (0.525,0.775,0.05)  Deviation = 0.00327807 Unit vector = (0.00499638,0.99997) F = (-0.0169272,-5.16374,0) 
 At (0.575,0.775,0.05)  Deviation = 0.00763169 Unit vector = (0.0149749,0.999866) F = (-0.0917843,-12.0265,0) 
 At (0.625,0.775,0.05)  Deviation = 0.0100837 Unit vector = (0.0249122,0.999668) F = (-0.160297,-15.8962,0) 
 At (0.675,0.775,0.05)  Deviation = 0.0114496 Unit vector = (0.0347806,0.999375) F = (-0.206759,-18.0575,0) 
 At (0.725,0.775,0.05)  Deviation = 0.012188 Unit vector = (0.0445534,0.998989) F = (-0.234423,-19.2331,0) 
 At (0.775,0.775,0.05)  Deviation = 0.012555 Unit vector = (0.0542037,0.998514) F = (-0.248931,-19.8262,0) 
 At (0.825,0.775,0.05)  Deviation = 0.0126935 Unit vector = (0.0637057,0.997955) F = (-0.254665,-20.0616,0) 
 At (0.875,0.775,0.05)  Deviation = 0.012683 Unit vector = (0.0730328,0.997318) F = (-0.254489,-20.0643,0) 
 At (0.925,0.775,0.05)  Deviation = 0.0125673 Unit vector = (0.0821571,0.996609) F = (-0.250136,-19.9027,0) 
 At (0.975,0.775,0.05)  Deviation = 0.0123742 Unit vector = (0.0910566,0.995836) F = (-0.242799,-19.6203,0) 
 At (1.025,0.775,0.05)  Deviation = 0.0121195 Unit vector = (0.0997091,0.995007) F = (-0.233206,-19.2413,0) 
 At (1.075,0.775,0.05)  Deviation = 0.0118108 Unit vector = (0.108093,0.994132) F = (-0.221783,-18.7772,0) 
 At (1.125,0.775,0.05)  Deviation = 0.0114495 Unit vector = (0.116183,0.993219) F = (-0.208728,-18.2295,0) 
 At (1.175,0.775,0.05)  Deviation = 0.011035 Unit vector = (0.123954,0.992277) F = (-0.194188,-17.5967,0) 
 At (1.225,0.775,0.05)  Deviation = 0.0105777 Unit vector = (0.131395,0.991317) F = (-0.178714,-16.8946,0) 
 At (1.275,0.775,0.05)  Deviation = 0.0100856 Unit vector = (0.138492,0.99035) F = (-0.162741,-16.1355,0) 
 At (1.325,0.775,0.05)  Deviation = 0.00956635 Unit vector = (0.145229,0.989384) F = (-0.146669,-15.3313,0) 
 At (1.375,0.775,0.05)  Deviation = 0.00902863 Unit vector = (0.151592,0.988429) F = (-0.130875,-14.4951,0) 
 At (1.425,0.775,0.05)  Deviation = 0.00848291 Unit vector = (0.15757,0.987494) F = (-0.115739,-13.6434,0) 
 At (1.475,0.775,0.05)  Deviation = 0.00797637 Unit vector = (0.163221,0.986582) F = (-0.102512,-12.8517,0) 
 At (1.525,0.775,0.05)  Deviation = -2e-06 Unit vector = (0,0) F = (0,0,0) 
 At (1.575,0.775,0.05)  Deviation = -2e-06 Unit vector = (0,0) F = (0,0,0) 
 At (1.625,0.775,0.05)  Deviation = -2e-06 Unit vector = (0,0) F = (0,0,0) 
 At (1.675,0.775,0.05)  Deviation = -2e-06 Unit vector = (0,0) F = (0,0,0) 
 At (1.725,0.775,0.05)  Deviation = -2e-06 Unit vector = (0,0) F = (0,0,0) 
 At (1.775,0.775,0.05)  Deviation = -2e-06 Unit vector = (0,0) F = (0,0,0) 
 At (1.825,0.775,0.05)  Deviation = -2e-06 Unit vector = (0,0) F = (0,0,0) 
 At (1.875,0.775,0.05)  Deviation = -2e-06 Unit vector = (0,0) F = (0,0,0) 
 At (1.925,0.775,0.05)  Deviation = -2e-06 Unit vector = (0,0) F = (0,0,0) 
 At (1.975,0.775,0.05)  Deviation = -2e-06 Unit vector = (0,0) F = (0,0,0) 
 At (0.025,0.825,0.05)  Deviation = -2e-06 Unit vector = (0,0) F = (0,0,0) 
 At (0.075,0.825,0.05)  Deviation = -2e-06 Unit vector = (0,0) F = (0,0,0) 
 At (0.125,0.825,0.05)  Deviation = -2e-06 Unit vector = (0,0) F = (0,0,0) 
 At (0.175,0.825,0.05)  Deviation = -2e-06 Unit vector = (0,0) F = (0,0,0) 
 At (0.225,0.825,0.05)  Deviation = -2e-06 Unit vector = (0,0) F = (0,0,0) 
 At (0.275,0.825,0.05)  Deviation = -2e-06 Unit vector = (0,0) F = (0,0,0) 
 At (0.325,0.825,0.05)  Deviation = -2e-06 Unit vector = (0,0) F = (0,0,0) 
 At (0.375,0.825,0.05)  Deviation = -2e-06 Unit vector = (0,0) F = (0,0,0) 
 At (0.425,0.825,0.05)  Deviation = -2e-06 Unit vector = (0,0) F = (0,0,0) 
 At (0.475,0.825,0.05)  Deviation = -2e-06 Unit vector = (0,0) F = (0,0,0) 
 At (0.525,0.825,0.05)  Deviation = 0.00302687 Unit vector = (0.00499641,0.999971) F = (-0.0144411,-4.77096,0) 
 At (0.575,0.825,0.05)  Deviation = 0.00745654 Unit vector = (0.0149747,0.999865) F = (-0.0876885,-11.7597,0) 
 At (0.625,0.825,0.05)  Deviation = 0.00996401 Unit vector = (0.0249109,0.999667) F = (-0.156662,-15.7222,0) 
 At (0.675,0.825,0.05)  Deviation = 0.0113762 Unit vector = (0.0347768,0.999371) F = (-0.204334,-17.9608,0) 
 At (0.725,0.825,0.05)  Deviation = 0.0121558 Unit vector = (0.0445449,0.998983) F = (-0.23346,-19.2047,0) 
 At (0.775,0.825,0.05)  Deviation = 0.01256 Unit vector = (0.0541883,0.998505) F = (-0.24944,-19.8589,0) 
 At (0.825,0.825,0.05)  Deviation = 0.0127314 Unit vector = (0.0636806,0.997944) F = (-0.256524,-20.1479,0) 
 At (0.875,0.825,0.05)  Deviation = 0.0127498 Unit vector = (0.0729964,0.997306) F = (-0.257524,-20.1971,0) 
 At (0.925,0.825,0.05)  Deviation = 0.0126608 Unit vector = (0.082111,0.996596) F = (-0.254217,-20.078,0) 
 At (0.975,0.825,0.05)  Deviation = 0.0124914 Unit vector = (0.0910009,0.995823) F = (-0.247753,-19.8328,0) 
 At (1.025,0.825,0.05)  Deviation = 0.0122591 Unit vector = (0.0996432,0.994996) F = (-0.238925,-19.4886,0) 
 At (1.075,0.825,0.05)  Deviation = 0.011972 Unit vector = (0.108016,0.994122) F = (-0.228166,-19.0573,0) 
 At (1.125,0.825,0.05)  Deviation = 0.0116281 Unit vector = (0.1161,0.993211) F = (-0.215538,-18.535,0) 
 At (1.175,0.825,0.05)  Deviation = 0.0112251 Unit vector = (0.123875,0.992273) F = (-0.201134,-17.9175,0) 
 At (1.225,0.825,0.05)  Deviation = 0.0107653 Unit vector = (0.131323,0.991315) F = (-0.185259,-17.2082,0) 
 At (1.275,0.825,0.05)  Deviation = 0.0102558 Unit vector = (0.138428,0.99035) F = (-0.168385,-16.418,0) 
 At (1.325,0.825,0.05)  Deviation = 0.00970712 Unit vector = (0.145174,0.989385) F = (-0.15108,-15.5633,0) 
 At (1.375,0.825,0.05)  Deviation = 0.00913335 Unit vector = (0.151547,0.988431) F = (-0.133958,-14.6665,0) 
 At (1.425,0.825,0.05)  Deviation = 0.00855387 Unit vector = (0.157539,0.987497) F = (-0.11769,-13.7583,0) 
 At (1.475,0.825,0.05)  Deviation = 0.00802724 Unit vector = (0.163213,0.986583) F = (-0.103816,-12.9327,0) 
 At (1.525,0.825,0.05)  Deviation = -2e-06 Unit vector = (0,0) F = (0,0,0) 
 At (1.575,0.825,0.05)  Deviation = -2e-06 Unit vector = (0,0) F = (0,0,0) 
 At (1.625,0.825,0.05)  Deviation = -2e-06 Unit vector = (0,0) F = (0,0,0) 
 At (1.675,0.825,0.05)  Deviation = -2e-06 Unit vector = (0,0) F = (0,0,0) 
 At (1.725,0.825,0.05)  Deviation = -2e-06 Unit vector = (0,0) F = (0,0,0) 
 At (1.775,0.825,0.05)  Deviation = -2e-06 Unit vector = (0,0) F = (0,0,0) 
 At (1.825,0.825,0.05)  Deviation = -2e-06 Unit vector = (0,0) F = (0,0,0) 
 At (1.875,0.825,0.05)  Deviation = -2e-06 Unit vector = (0,0) F = (0,0,0) 
 At (1.925,0.825,0.05)  Deviation = -2e-06 Unit vector = (0,0) F = (0,0,0) 
 At (1.975,0.825,0.05)  Deviation = -2e-06 Unit vector = (0,0) F = (0,0,0) 
 At (0.025,0.875,0.05)  Deviation = -2e-06 Unit vector = (0,0) F = (0,0,0) 
 At (0.075,0.875,0.05)  Deviation = -2e-06 Unit vector = (0,0) F = (0,0,0) 
 At (0.125,0.875,0.05)  Deviation = -2e-06 Unit vector = (0,0) F = (0,0,0) 
 At (0.175,0.875,0.05)  Deviation = -2e-06 Unit vector = (0,0) F = (0,0,0) 
 At (0.225,0.875,0.05)  Deviation = -2e-06 Unit vector = (0,0) F = (0,0,0) 
 At (0.275,0.875,0.05)  Deviation = -2e-06 Unit vector = (0,0) F = (0,0,0) 
 At (0.325,0.875,0.05)  Deviation = -2e-06 Unit vector = (0,0) F = (0,0,0) 
 At (0.375,0.875,0.05)  Deviation = -2e-06 Unit vector = (0,0) F = (0,0,0) 
 At (0.425,0.875,0.05)  Deviation = -2e-06 Unit vector = (0,0) F = (0,0,0) 
 At (0.475,0.875,0.05)  Deviation = -2e-06 Unit vector = (0,0) F = (0,0,0) 
 At (0.525,0.875,0.05)  Deviation = 0.00267965 Unit vector = (0.00499444,0.999964) F = (-0.0113231,-4.22557,0) 
 At (0.575,0.875,0.05)  Deviation = 0.00718524 Unit vector = (0.0149664,0.999846) F = (-0.0814776,-11.3394,0) 
 At (0.625,0.875,0.05)  Deviation = 0.00975361 Unit vector = (0.0248974,0.999648) F = (-0.150245,-15.4036,0) 
 At (0.675,0.875,0.05)  Deviation = 0.011223 Unit vector = (0.0347587,0.999354) F = (-0.199078,-17.7377,0) 
 At (0.725,0.875,0.05)  Deviation = 0.0120588 Unit vector = (0.044523,0.998967) F = (-0.23003,-19.0748,0) 
 At (0.775,0.875,0.05)  Deviation = 0.0125182 Unit vector = (0.0541635,0.998492) F = (-0.248124,-19.82,0) 
 At (0.825,0.875,0.05)  Deviation = 0.0127431 Unit vector = (0.0636538,0.997932) F = (-0.257378,-20.1963,0) 
 At (0.875,0.875,0.05)  Deviation = 0.0128118 Unit vector = (0.0729686,0.997296) F = (-0.260439,-20.327,0) 
 At (0.925,0.875,0.05)  Deviation = 0.0127684 Unit vector = (0.0820833,0.996588) F = (-0.258976,-20.2814,0) 
 At (0.975,0.875,0.05)  Deviation = 0.0126407 Unit vector = (0.0909743,0.995818) F = (-0.254127,-20.1028,0) 
 At (1.025,0.875,0.05)  Deviation = 0.0124535 Unit vector = (0.099619,0.994992) F = (-0.246971,-19.8304,0) 
 At (1.075,0.875,0.05)  Deviation = 0.0122209 Unit vector = (0.107996,0.99412) F = (-0.238137,-19.485,0) 
 At (1.125,0.875,0.05)  Deviation = 0.0119323 Unit vector = (0.116085,0.99321) F = (-0.227299,-19.0482,0) 
 At (1.175,0.875,0.05)  Deviation = 0.011575 Unit vector = (0.123867,0.992272) F = (-0.214141,-18.4996,0) 
 At (1.225,0.875,0.05)  Deviation = 0.0111436 Unit vector = (0.131324,0.991315) F = (-0.198702,-17.8303,0) 
 At (1.275,0.875,0.05)  Deviation = 0.0106394 Unit vector = (0.138439,0.99035) F = (-0.181326,-17.0423,0) 
 At (1.325,0.875,0.05)  Deviation = 0.0100695 Unit vector = (0.145196,0.989385) F = (-0.162602,-16.1475,0) 
 At (1.375,0.875,0.05)  Deviation = 0.00944789 Unit vector = (0.151582,0.988429) F = (-0.143314,-15.1685,0) 
 At (1.425,0.875,0.05)  Deviation = 0.00879724 Unit vector = (0.157583,0.987493) F = (-0.124412,-14.1418,0) 
 At (1.475,0.875,0.05)  Deviation = 0.00817248 Unit vector = (0.163234,0.986581) F = (-0.107515,-13.1555,0) 
 At (1.525,0.875,0.05)  Deviation = -2e-06 Unit vector = (0,0) F = (0,0,0) 
 At (1.575,0.875,0.05)  Deviation = -2e-06 Unit vector = (0,0) F = (0,0,0) 
 At (1.625,0.875,0.05)  Deviation = -2e-06 Unit vector = (0,0) F = (0,0,0) 
 At (1.675,0.875,0.05)  Deviation = -2e-06 Unit vector = (0,0) F = (0,0,0) 
 At (1.725,0.875,0.05)  Deviation = -2e-06 Unit vector = (0,0) F = (0,0,0) 
 At (1.775,0.875,0.05)  Deviation = -2e-06 Unit vector = (0,0) F = (0,0,0) 
 At (1.825,0.875,0.05)  Deviation = -2e-06 Unit vector = (0,0) F = (0,0,0) 
 At (1.875,0.875,0.05)  Deviation = -2e-06 Unit vector = (0,0) F = (0,0,0) 
 At (1.925,0.875,0.05)  Deviation = -2e-06 Unit vector = (0,0) F = (0,0,0) 
 At (1.975,0.875,0.05)  Deviation = -2e-06 Unit vector = (0,0) F = (0,0,0) 
 At (0.025,0.925,0.05)  Deviation = -2e-06 Unit vector = (0,0) F = (0,0,0) 
 At (0.075,0.925,0.05)  Deviation = -2e-06 Unit vector = (0,0) F = (0,0,0) 
 At (0.125,0.925,0.05)  Deviation = -2e-06 Unit vector = (0,0) F = (0,0,0) 
 At (0.175,0.925,0.05)  Deviation = -2e-06 Unit vector = (0,0) F = (0,0,0) 
 At (0.225,0.925,0.05)  Deviation = -2e-06 Unit vector = (0,0) F = (0,0,0) 
 At (0.275,0.925,0.05)  Deviation = -2e-06 Unit vector = (0,0) F = (0,0,0) 
 At (0.325,0.925,0.05)  Deviation = -2e-06 Unit vector = (0,0) F = (0,0,0) 
 At (0.375,0.925,0.05)  Deviation = -2e-06 Unit vector = (0,0) F = (0,0,0) 
 At (0.425,0.925,0.05)  Deviation = -2e-06 Unit vector = (0,0) F = (0,0,0) 
 At (0.475,0.925,0.05)  Deviation = -2e-06 Unit vector = (0,0) F = (0,0,0) 
 At (0.525,0.925,0.05)  Deviation = 0.00222358 Unit vector = (0.00499443,0.999964) F = (-0.00779772,-3.50683,0) 
 At (0.575,0.925,0.05)  Deviation = 0.0067902 Unit vector = (0.0149664,0.999846) F = (-0.0727928,-10.7201,0) 
 At (0.625,0.925,0.05)  Deviation = 0.00942354 Unit vector = (0.0248977,0.999648) F = (-0.140345,-14.8925,0) 
 At (0.675,0.925,0.05)  Deviation = 0.0109759 Unit vector = (0.0347597,0.999355) F = (-0.190595,-17.3642,0) 
 At (0.725,0.925,0.05)  Deviation = 0.0119082 Unit vector = (0.0445251,0.998969) F = (-0.224604,-18.8604,0) 
 At (0.775,0.925,0.05)  Deviation = 0.0124697 Unit vector = (0.0541674,0.998494) F = (-0.246574,-19.7728,0) 
 At (0.825,0.925,0.05)  Deviation = 0.0127951 Unit vector = (0.0636604,0.997935) F = (-0.25992,-20.3129,0) 
 At (0.875,0.925,0.05)  Deviation = 0.0129562 Unit vector = (0.0729788,0.997299) F = (-0.266828,-20.5935,0) 
 At (0.925,0.925,0.05)  Deviation = 0.0129903 Unit vector = (0.0820981,0.996592) F = (-0.268563,-20.6729,0) 
 At (0.975,0.925,0.05)  Deviation = 0.0129164 Unit vector = (0.0909948,0.995822) F = (-0.265847,-20.5809,0) 
 At (1.025,0.925,0.05)  Deviation = 0.0127509 Unit vector = (0.0996465,0.994997) F = (-0.259407,-20.3431,0) 
 At (1.075,0.925,0.05)  Deviation = 0.0125113 Unit vector = (0.108032,0.994124) F = (-0.250049,-19.9849,0) 
 At (1.125,0.925,0.05)  Deviation = 0.0122047 Unit vector = (0.116131,0.993214) F = (-0.238181,-19.5145,0) 
 At (1.175,0.925,0.05)  Deviation = 0.0118349 Unit vector = (0.123925,0.992275) F = (-0.224138,-18.9378,0) 
 At (1.225,0.925,0.05)  Deviation = 0.0114019 Unit vector = (0.131396,0.991317) F = (-0.208154,-18.2553,0) 
 At (1.275,0.925,0.05)  Deviation = 0.010903 Unit vector = (0.138528,0.99035) F = (-0.19042,-17.4641,0) 
 At (1.325,0.925,0.05)  Deviation = 0.0103331 Unit vector = (0.145299,0.989382) F = (-0.171102,-16.558,0) 
 At (1.375,0.925,0.05)  Deviation = 0.00968785 Unit vector = (0.151683,0.988424) F = (-0.150472,-15.5316,0) 
 At (1.425,0.925,0.05)  Deviation = 0.00897637 Unit vector = (0.157654,0.987488) F = (-0.129275,-14.4013,0) 
 At (1.475,0.925,0.05)  Deviation = 0.00827117 Unit vector = (0.163266,0.986578) F = (-0.109878,-13.2841,0) 
 At (1.525,0.925,0.05)  Deviation = -2e-06 Unit vector = (0,0) F = (0,0,0) 
 At (1.575,0.925,0.05)  Deviation = -2e-06 Unit vector = (0,0) F = (0,0,0) 
 At (1.625,0.925,0.05)  Deviation = -2e-06 Unit vector = (0,0) F = (0,0,0) 
 At (1.675,0.925,0.05)  Deviation = -2e-06 Unit vector = (0,0) F = (0,0,0) 
 At (1.725,0.925,0.05)  Deviation = -2e-06 Unit vector = (0,0) F = (0,0,0) 
 At (1.775,0.925,0.05)  Deviation = -2e-06 Unit vector = (0,0) F = (0,0,0) 
 At (1.825,0.925,0.05)  Deviation = -2e-06 Unit vector = (0,0) F = (0,0,0) 
 At (1.875,0.925,0.05)  Deviation = -2e-06 Unit vector = (0,0) F = (0,0,0) 
 At (1.925,0.925,0.05)  Deviation = -2e-06 Unit vector = (0,0) F = (0,0,0) 
 At (1.975,0.925,0.05)  Deviation = -2e-06 Unit vector = (0,0) F = (0,0,0) 
 At (0.025,0.975,0.05)  Deviation = -2e-06 Unit vector = (0,0) F = (0,0,0) 
 At (0.075,0.975,0.05)  Deviation = -2e-06 Unit vector = (0,0) F = (0,0,0) 
 At (0.125,0.975,0.05)  Deviation = -2e-06 Unit vector = (0,0) F = (0,0,0) 
 At (0.175,0.975,0.05)  Deviation = -2e-06 Unit vector = (0,0) F = (0,0,0) 
 At (0.225,0.975,0.05)  Deviation = -2e-06 Unit vector = (0,0) F = (0,0,0) 
 At (0.275,0.975,0.05)  Deviation = -2e-06 Unit vector = (0,0) F = (0,0,0) 
 At (0.325,0.975,0.05)  Deviation = -2e-06 Unit vector = (0,0) F = (0,0,0) 
 At (0.375,0.975,0.05)  Deviation = -2e-06 Unit vector = (0,0) F = (0,0,0) 
 At (0.425,0.975,0.05)  Deviation = -2e-06 Unit vector = (0,0) F = (0,0,0) 
 At (0.475,0.975,0.05)  Deviation = -2e-06 Unit vector = (0,0) F = (0,0,0) 
 At (0.525,0.975,0.05)  Deviation = 0.00163325 Unit vector = (0.00499638,0.99997) F = (-0.00420491,-2.57456,0) 
 At (0.575,0.975,0.05)  Deviation = 0.00607803 Unit vector = (0.0149749,0.999866) F = (-0.0583144,-9.59418,0) 
 At (0.625,0.975,0.05)  Deviation = 0.00850353 Unit vector = (0.0249122,0.999668) F = (-0.114316,-13.443,0) 
 At (0.675,0.975,0.05)  Deviation = 0.00982795 Unit vector = (0.0347806,0.999375) F = (-0.152943,-15.5616,0) 
 At (0.725,0.975,0.05)  Deviation = 0.0105534 Unit vector = (0.0445534,0.998989) F = (-0.176642,-16.7373,0) 
 At (0.775,0.975,0.05)  Deviation = 0.0109492 Unit vector = (0.0542037,0.998514) F = (-0.190435,-17.3919,0) 
 At (0.825,0.975,0.05)  Deviation = 0.0111568 Unit vector = (0.0637057,0.997955) F = (-0.198007,-17.7469,0) 
 At (0.875,0.975,0.05)  Deviation = 0.0112466 Unit vector = (0.0730328,0.997318) F = (-0.201463,-17.9125,0) 
 At (0.925,0.975,0.05)  Deviation = 0.0112483 Unit vector = (0.0821571,0.996609) F = (-0.201743,-17.9346,0) 
 At (0.975,0.975,0.05)  Deviation = 0.011171 Unit vector = (0.0910566,0.995836) F = (-0.199151,-17.8267,0) 
 At (1.025,0.975,0.05)  Deviation = 0.0107378 Unit vector = (0.0992564,0.994978) F = (-0.184118,-17.146,0) 
 At (1.075,0.975,0.05)  Deviation = 0.00999066 Unit vector = (0.106653,0.994054) F = (-0.159441,-15.9584,0) 
 At (1.125,0.975,0.05)  Deviation = 0.00950247 Unit vector = (0.114039,0.993133) F = (-0.144258,-15.1806,0) 
 At (1.175,0.975,0.05)  Deviation = 0.00917578 Unit vector = (0.121405,0.992213) F = (-0.134507,-14.6585,0) 
 At (1.225,0.975,0.05)  Deviation = 0.008957 Unit vector = (0.12873,0.991289) F = (-0.128161,-14.3081,0) 
 At (1.275,0.975,0.05)  Deviation = 0.00881518 Unit vector = (0.135994,0.990362) F = (-0.124132,-14.0813,0) 
 At (1.325,0.975,0.05)  Deviation = 0.00872098 Unit vector = (0.143159,0.989427) F = (-0.121512,-13.933,0) 
 At (1.375,0.975,0.05)  Deviation = 0.00863927 Unit vector = (0.150168,0.988483) F = (-0.119301,-13.8088,0) 
 At (1.425,0.975,0.05)  Deviation = 0.0085124 Unit vector = (0.156912,0.987532) F = (-0.115929,-13.6186,0) 
 At (1.475,0.975,0.05)  Deviation = 0.00821416 Unit vector = (0.163158,0.986587) F = (-0.10811,-13.1611,0) 
 At (1.525,0.975,0.05)  Deviation = -2e-06 Unit vector = (0,0) F = (0,0,0) 
 At (1.575,0.975,0.05)  Deviation = -2e-06 Unit vector = (0,0) F = (0,0,0) 
 At (1.625,0.975,0.05)  Deviation = -2e-06 Unit vector = (0,0) F = (0,0,0) 
 At (1.675,0.975,0.05)  Deviation = -2e-06 Unit vector = (0,0) F = (0,0,0) 
 At (1.725,0.975,0.05)  Deviation = -2e-06 Unit vector = (0,0) F = (0,0,0) 
 At (1.775,0.975,0.05)  Deviation = -2e-06 Unit vector = (0,0) F = (0,0,0) 
 At (1.825,0.975,0.05)  Deviation = -2e-06 Unit vector = (0,0) F = (0,0,0) 
 At (1.875,0.975,0.05)  Deviation = -2e-06 Unit vector = (0,0) F = (0,0,0) 
 At (1.925,0.975,0.05)  Deviation = -2e-06 Unit vector = (0,0) F = (0,0,0) 
 At (1.975,0.975,0.05)  Deviation = -2e-06 Unit vector = (0,0) F = (0,0,0) 
**codeSetValue**
smoothSolver:  Solving for Ux, Initial residual = 0.000295626, Final residual = 1.11828e-05, No Iterations 2
smoothSolver:  Solving for Uy, Initial residual = 2.67239e-07, Final residual = 7.10481e-09, No Iterations 2
**codeCorrect**
GAMG:  Solving for p, Initial residual = 0.000148922, Final residual = 7.79913e-06, No Iterations 2
time step continuity errors : sum local = 6.10615e-07, global = 3.37829e-07, cumulative = -0.000238536
**codeCorrect**
ExecutionTime = 14.36 s  ClockTime = 52 s

Time = 61

**codeSetValue**
smoothSolver:  Solving for Ux, Initial residual = 0.000228182, Final residual = 9.23609e-06, No Iterations 2
smoothSolver:  Solving for Uy, Initial residual = 3.23991e-07, Final residual = 1.12489e-08, No Iterations 2
**codeCorrect**
GAMG:  Solving for p, Initial residual = 0.000136122, Final residual = 1.07064e-05, No Iterations 2
time step continuity errors : sum local = 8.38045e-07, global = 6.66416e-07, cumulative = -0.000237869
**codeCorrect**
ExecutionTime = 14.38 s  ClockTime = 52 s

Time = 62

**codeSetValue**
smoothSolver:  Solving for Ux, Initial residual = 9.72019e-05, Final residual = 2.62079e-06, No Iterations 2
smoothSolver:  Solving for Uy, Initial residual = 2.51479e-07, Final residual = 8.80696e-09, No Iterations 2
**codeCorrect**
GAMG:  Solving for p, Initial residual = 7.01936e-05, Final residual = 6.12621e-06, No Iterations 2
time step continuity errors : sum local = 4.79084e-07, global = 2.43188e-07, cumulative = -0.000237626
**codeCorrect**
ExecutionTime = 14.4 s  ClockTime = 52 s


SIMPLE solution converged in 62 iterations

End

