/*---------------------------------------------------------------------------*\
| =========                 |                                                 |
| \\      /  F ield         | OpenFOAM: The Open Source CFD Toolbox           |
|  \\    /   O peration     | Version:  5.x                                   |
|   \\  /    A nd           | Web:      www.OpenFOAM.org                      |
|    \\/     M anipulation  |                                                 |
\*---------------------------------------------------------------------------*/
Build  : 5.x-197d9d3bf20a
Exec   : simpleFoam
Date   : Jan 27 2019
Time   : 01:04:18
Host   : "palak"
PID    : 1079
I/O    : uncollated
Case   : /home/palak/OpenFOAM/palak-5.0/run/flatplatetest
nProcs : 1
sigFpe : Enabling floating point exception trapping (FOAM_SIGFPE).
fileModificationChecking : Monitoring run-time modified files using timeStampMaster (fileModificationSkew 10)
allowSystemOperations : Allowing user-supplied system call operations

// * * * * * * * * * * * * * * * * * * * * * * * * * * * * * * * * * * * * * //
Create time

Create mesh for time = 78


SIMPLE: convergence criteria
    field p	 tolerance 0.001
    field U	 tolerance 0.0001
    field "(k|epsilon)"	 tolerance 0.0001

Reading field p

Reading field U

Reading/calculating face flux field phi

Selecting incompressible transport model Newtonian
Selecting turbulence model type laminar
Selecting laminar stress model Stokes
No MRF models present

Creating finite volume options from "constant/fvOptions"

Selecting finite volume options model type vectorCodedSource
    Source: momentumSource
    - selecting all cells
    - selected 800 cell(s) with volume 0.2

Starting time loop

Time = 79

Using dynamicCode for fvOption:: bodyForce at line 25 in "/home/palak/OpenFOAM/palak-5.0/run/flatplatetest/constant/fvOptions.momentumSource.vectorCodedSourceCoeffs"
Selecting finite volume options model type bodyForce
    Source: bodyForce
    - selecting all cells
    - selected 800 cell(s) with volume 0.2
**codeSetValue**
smoothSolver:  Solving for Ux, Initial residual = 0.00806602, Final residual = 0.000459013, No Iterations 1
smoothSolver:  Solving for Uy, Initial residual = 2.38299e-06, Final residual = 2.20565e-07, No Iterations 1
**codeCorrect**
GAMG:  Solving for p, Initial residual = 0.00058859, Final residual = 1.94612e-05, No Iterations 2
time step continuity errors : sum local = 2.00855e-06, global = -3.39604e-07, cumulative = -3.39604e-07
**codeCorrect**
ExecutionTime = 0.12 s  ClockTime = 0 s

Time = 80

 At (0.025 , 0.025 , 0.05 )  Deviation = 6.95261e-310 Body force = (0 , 0 , 0) 
 At (0.075 , 0.025 , 0.05 )  Deviation = 6.95261e-310 Body force = (0 , 0 , 0) 
 At (0.125 , 0.025 , 0.05 )  Deviation = 1.08097e-316 Body force = (0 , 0 , 0) 
 At (0.175 , 0.025 , 0.05 )  Deviation = 1.08097e-316 Body force = (0 , 0 , 0) 
 At (0.225 , 0.025 , 0.05 )  Deviation = 0 Body force = (0 , 0 , 0) 
 At (0.275 , 0.025 , 0.05 )  Deviation = 9.99998 Body force = (0 , 0 , 0) 
 At (0.325 , 0.025 , 0.05 )  Deviation = -1.66575 Body force = (0 , 0 , 0) 
 At (0.375 , 0.025 , 0.05 )  Deviation = 0 Body force = (0 , 0 , 0) 
 At (0.425 , 0.025 , 0.05 )  Deviation = 10 Body force = (0 , 0 , 0) 
 At (0.475 , 0.025 , 0.05 )  Deviation = -1.66575 Body force = (0 , 0 , 0) 
 At (0.525 , 0.025 , 0.05 )  Deviation = 0.151076 Body force = (-7.13896 , -46.894 , -0) 
 At (0.575 , 0.025 , 0.05 )  Deviation = 0.130716 Body force = (-5.36058 , -40.7756 , -0) 
 At (0.625 , 0.025 , 0.05 )  Deviation = 0.113063 Body force = (-4.02312 , -35.4311 , -0) 
 At (0.675 , 0.025 , 0.05 )  Deviation = 0.0977628 Body force = (-3.01598 , -30.7516 , -0) 
 At (0.725 , 0.025 , 0.05 )  Deviation = 0.0845155 Body force = (-2.25968 , -26.6732 , -0) 
 At (0.775 , 0.025 , 0.05 )  Deviation = 0.0730561 Body force = (-1.69262 , -23.1275 , -0) 
 At (0.825 , 0.025 , 0.05 )  Deviation = 0.0631463 Body force = (-1.26754 , -20.0464 , -0) 
 At (0.875 , 0.025 , 0.05 )  Deviation = 0.0545775 Body force = (-0.948926 , -17.3695 , -0) 
 At (0.925 , 0.025 , 0.05 )  Deviation = 0.0471695 Body force = (-0.710202 , -15.0452 , -0) 
 At (0.975 , 0.025 , 0.05 )  Deviation = 0.0407658 Body force = (-0.531397 , -13.0281 , -0) 
 At (1.025 , 0.025 , 0.05 )  Deviation = 0.0352307 Body force = (-0.39752 , -11.2787 , -0) 
 At (1.075 , 0.025 , 0.05 )  Deviation = 0.0304468 Body force = (-0.297314 , -9.76201 , -0) 
 At (1.125 , 0.025 , 0.05 )  Deviation = 0.0263124 Body force = (-0.22233 , -8.44767 , -0) 
 At (1.175 , 0.025 , 0.05 )  Deviation = 0.0227395 Body force = (-0.166234 , -7.3091 , -0) 
 At (1.225 , 0.025 , 0.05 )  Deviation = 0.0196516 Body force = (-0.124274 , -6.32303 , -0) 
 At (1.275 , 0.025 , 0.05 )  Deviation = 0.0169833 Body force = (-0.0928958 , -5.46932 , -0) 
 At (1.325 , 0.025 , 0.05 )  Deviation = 0.0146773 Body force = (-0.069434 , -4.73037 , -0) 
 At (1.375 , 0.025 , 0.05 )  Deviation = 0.0126843 Body force = (-0.0518918 , -4.0908 , -0) 
 At (1.425 , 0.025 , 0.05 )  Deviation = 0.0109619 Body force = (-0.0387781 , -3.53739 , -0) 
 At (1.475 , 0.025 , 0.05 )  Deviation = 0.00947324 Body force = (-0.0289751 , -3.05853 , -0) 
 At (1.525 , 0.025 , 0.05 )  Deviation = -1.66575 Body force = (0 , 0 , 0) 
 At (1.575 , 0.025 , 0.05 )  Deviation = 0 Body force = (0 , 0 , 0) 
 At (1.625 , 0.025 , 0.05 )  Deviation = 10 Body force = (0 , 0 , 0) 
 At (1.675 , 0.025 , 0.05 )  Deviation = -1.66575 Body force = (0 , 0 , 0) 
 At (1.725 , 0.025 , 0.05 )  Deviation = 0 Body force = (0 , 0 , 0) 
 At (1.775 , 0.025 , 0.05 )  Deviation = 10 Body force = (0 , 0 , 0) 
 At (1.825 , 0.025 , 0.05 )  Deviation = -1.66575 Body force = (0 , 0 , 0) 
 At (1.875 , 0.025 , 0.05 )  Deviation = 0 Body force = (0 , 0 , 0) 
 At (1.925 , 0.025 , 0.05 )  Deviation = 10 Body force = (0 , 0 , 0) 
 At (1.975 , 0.025 , 0.05 )  Deviation = -2.50949e-10 Body force = (0 , 0 , 0) 
 At (0.025 , 0.075 , 0.05 )  Deviation = 0 Body force = (0 , 0 , 0) 
 At (0.075 , 0.075 , 0.05 )  Deviation = 10 Body force = (0 , 0 , 0) 
 At (0.125 , 0.075 , 0.05 )  Deviation = -5.5004e-10 Body force = (0 , 0 , 0) 
 At (0.175 , 0.075 , 0.05 )  Deviation = 0 Body force = (0 , 0 , 0) 
 At (0.225 , 0.075 , 0.05 )  Deviation = 10 Body force = (0 , 0 , 0) 
 At (0.275 , 0.075 , 0.05 )  Deviation = -7.86675e-10 Body force = (0 , 0 , 0) 
 At (0.325 , 0.075 , 0.05 )  Deviation = 0 Body force = (0 , 0 , 0) 
 At (0.375 , 0.075 , 0.05 )  Deviation = 10 Body force = (0 , 0 , 0) 
 At (0.425 , 0.075 , 0.05 )  Deviation = -9.39039e-10 Body force = (0 , 0 , 0) 
 At (0.475 , 0.075 , 0.05 )  Deviation = 0 Body force = (0 , 0 , 0) 
 At (0.525 , 0.075 , 0.05 )  Deviation = 0.151076 Body force = (-7.13896 , -46.894 , -0) 
 At (0.575 , 0.075 , 0.05 )  Deviation = 0.130716 Body force = (-5.36058 , -40.7756 , -0) 
 At (0.625 , 0.075 , 0.05 )  Deviation = 0.113063 Body force = (-4.02312 , -35.4311 , -0) 
 At (0.675 , 0.075 , 0.05 )  Deviation = 0.0977627 Body force = (-3.01597 , -30.7516 , -0) 
 At (0.725 , 0.075 , 0.05 )  Deviation = 0.0845155 Body force = (-2.25968 , -26.6732 , -0) 
 At (0.775 , 0.075 , 0.05 )  Deviation = 0.0730561 Body force = (-1.69262 , -23.1275 , -0) 
 At (0.825 , 0.075 , 0.05 )  Deviation = 0.0631463 Body force = (-1.26754 , -20.0464 , -0) 
 At (0.875 , 0.075 , 0.05 )  Deviation = 0.0545775 Body force = (-0.948926 , -17.3695 , -0) 
 At (0.925 , 0.075 , 0.05 )  Deviation = 0.0471695 Body force = (-0.710202 , -15.0452 , -0) 
 At (0.975 , 0.075 , 0.05 )  Deviation = 0.0407658 Body force = (-0.531397 , -13.0281 , -0) 
 At (1.025 , 0.075 , 0.05 )  Deviation = 0.0352307 Body force = (-0.39752 , -11.2787 , -0) 
 At (1.075 , 0.075 , 0.05 )  Deviation = 0.0304468 Body force = (-0.297314 , -9.76201 , -0) 
 At (1.125 , 0.075 , 0.05 )  Deviation = 0.0263124 Body force = (-0.22233 , -8.44767 , -0) 
 At (1.175 , 0.075 , 0.05 )  Deviation = 0.0227395 Body force = (-0.166234 , -7.3091 , -0) 
 At (1.225 , 0.075 , 0.05 )  Deviation = 0.0196516 Body force = (-0.124274 , -6.32303 , -0) 
 At (1.275 , 0.075 , 0.05 )  Deviation = 0.0169833 Body force = (-0.0928958 , -5.46932 , -0) 
 At (1.325 , 0.075 , 0.05 )  Deviation = 0.0146773 Body force = (-0.069434 , -4.73037 , -0) 
 At (1.375 , 0.075 , 0.05 )  Deviation = 0.0126843 Body force = (-0.0518918 , -4.0908 , -0) 
 At (1.425 , 0.075 , 0.05 )  Deviation = 0.0109619 Body force = (-0.0387781 , -3.53739 , -0) 
 At (1.475 , 0.075 , 0.05 )  Deviation = 0.00947324 Body force = (-0.0289751 , -3.05853 , -0) 
 At (1.525 , 0.075 , 0.05 )  Deviation = 0 Body force = (0 , 0 , 0) 
 At (1.575 , 0.075 , 0.05 )  Deviation = 9.99781 Body force = (0 , 0 , 0) 
 At (1.625 , 0.075 , 0.05 )  Deviation = -0.438356 Body force = (0 , 0 , 0) 
 At (1.675 , 0.075 , 0.05 )  Deviation = 0 Body force = (0 , 0 , 0) 
 At (1.725 , 0.075 , 0.05 )  Deviation = 10.0006 Body force = (0 , 0 , 0) 
 At (1.775 , 0.075 , 0.05 )  Deviation = -0.61551 Body force = (0 , 0 , 0) 
 At (1.825 , 0.075 , 0.05 )  Deviation = 0 Body force = (0 , 0 , 0) 
 At (1.875 , 0.075 , 0.05 )  Deviation = 10.0007 Body force = (0 , 0 , 0) 
 At (1.925 , 0.075 , 0.05 )  Deviation = -0.769268 Body force = (0 , 0 , 0) 
 At (1.975 , 0.075 , 0.05 )  Deviation = 0 Body force = (0 , 0 , 0) 
 At (0.025 , 0.125 , 0.05 )  Deviation = 10.0002 Body force = (0 , 0 , 0) 
 At (0.075 , 0.125 , 0.05 )  Deviation = -0.902633 Body force = (0 , 0 , 0) 
 At (0.125 , 0.125 , 0.05 )  Deviation = 0 Body force = (0 , 0 , 0) 
 At (0.175 , 0.125 , 0.05 )  Deviation = 10 Body force = (0 , 0 , 0) 
 At (0.225 , 0.125 , 0.05 )  Deviation = -1.01827 Body force = (0 , 0 , 0) 
 At (0.275 , 0.125 , 0.05 )  Deviation = 0 Body force = (0 , 0 , 0) 
 At (0.325 , 0.125 , 0.05 )  Deviation = 10.0001 Body force = (0 , 0 , 0) 
 At (0.375 , 0.125 , 0.05 )  Deviation = -1.1185 Body force = (0 , 0 , 0) 
 At (0.425 , 0.125 , 0.05 )  Deviation = 0 Body force = (0 , 0 , 0) 
 At (0.475 , 0.125 , 0.05 )  Deviation = 10.0001 Body force = (0 , 0 , 0) 
 At (0.525 , 0.125 , 0.05 )  Deviation = 0.151076 Body force = (-7.13896 , -46.894 , -0) 
 At (0.575 , 0.125 , 0.05 )  Deviation = 0.130716 Body force = (-5.36058 , -40.7756 , -0) 
 At (0.625 , 0.125 , 0.05 )  Deviation = 0.113063 Body force = (-4.02312 , -35.4311 , -0) 
 At (0.675 , 0.125 , 0.05 )  Deviation = 0.0977627 Body force = (-3.01597 , -30.7516 , -0) 
 At (0.725 , 0.125 , 0.05 )  Deviation = 0.0845155 Body force = (-2.25968 , -26.6732 , -0) 
 At (0.775 , 0.125 , 0.05 )  Deviation = 0.0730561 Body force = (-1.69262 , -23.1275 , -0) 
 At (0.825 , 0.125 , 0.05 )  Deviation = 0.0631463 Body force = (-1.26754 , -20.0464 , -0) 
 At (0.875 , 0.125 , 0.05 )  Deviation = 0.0545775 Body force = (-0.948926 , -17.3695 , -0) 
 At (0.925 , 0.125 , 0.05 )  Deviation = 0.0471695 Body force = (-0.710202 , -15.0452 , -0) 
 At (0.975 , 0.125 , 0.05 )  Deviation = 0.0407658 Body force = (-0.531397 , -13.0281 , -0) 
 At (1.025 , 0.125 , 0.05 )  Deviation = 0.0352307 Body force = (-0.39752 , -11.2787 , -0) 
 At (1.075 , 0.125 , 0.05 )  Deviation = 0.0304468 Body force = (-0.297314 , -9.76201 , -0) 
 At (1.125 , 0.125 , 0.05 )  Deviation = 0.0263124 Body force = (-0.22233 , -8.44767 , -0) 
 At (1.175 , 0.125 , 0.05 )  Deviation = 0.0227395 Body force = (-0.166234 , -7.3091 , -0) 
 At (1.225 , 0.125 , 0.05 )  Deviation = 0.0196516 Body force = (-0.124274 , -6.32303 , -0) 
 At (1.275 , 0.125 , 0.05 )  Deviation = 0.0169833 Body force = (-0.0928958 , -5.46932 , -0) 
 At (1.325 , 0.125 , 0.05 )  Deviation = 0.0146773 Body force = (-0.069434 , -4.73037 , -0) 
 At (1.375 , 0.125 , 0.05 )  Deviation = 0.0126843 Body force = (-0.0518918 , -4.0908 , -0) 
 At (1.425 , 0.125 , 0.05 )  Deviation = 0.0109619 Body force = (-0.0387781 , -3.53739 , -0) 
 At (1.475 , 0.125 , 0.05 )  Deviation = 0.00947324 Body force = (-0.0289751 , -3.05853 , -0) 
 At (1.525 , 0.125 , 0.05 )  Deviation = 10 Body force = (0 , 0 , 0) 
 At (1.575 , 0.125 , 0.05 )  Deviation = -1.56132 Body force = (0 , 0 , 0) 
 At (1.625 , 0.125 , 0.05 )  Deviation = 0 Body force = (0 , 0 , 0) 
 At (1.675 , 0.125 , 0.05 )  Deviation = 10 Body force = (0 , 0 , 0) 
 At (1.725 , 0.125 , 0.05 )  Deviation = -1.58866 Body force = (0 , 0 , 0) 
 At (1.775 , 0.125 , 0.05 )  Deviation = 0 Body force = (0 , 0 , 0) 
 At (1.825 , 0.125 , 0.05 )  Deviation = 10 Body force = (0 , 0 , 0) 
 At (1.875 , 0.125 , 0.05 )  Deviation = -1.61231 Body force = (0 , 0 , 0) 
 At (1.925 , 0.125 , 0.05 )  Deviation = 0 Body force = (0 , 0 , 0) 
 At (1.975 , 0.125 , 0.05 )  Deviation = 10 Body force = (0 , 0 , 0) 
 At (0.025 , 0.175 , 0.05 )  Deviation = -1.63277 Body force = (0 , 0 , 0) 
 At (0.075 , 0.175 , 0.05 )  Deviation = 0 Body force = (0 , 0 , 0) 
 At (0.125 , 0.175 , 0.05 )  Deviation = 10 Body force = (0 , 0 , 0) 
 At (0.175 , 0.175 , 0.05 )  Deviation = -1.65046 Body force = (0 , 0 , 0) 
 At (0.225 , 0.175 , 0.05 )  Deviation = 0 Body force = (0 , 0 , 0) 
 At (0.275 , 0.175 , 0.05 )  Deviation = 9.99998 Body force = (0 , 0 , 0) 
 At (0.325 , 0.175 , 0.05 )  Deviation = -1.66575 Body force = (0 , 0 , 0) 
 At (0.375 , 0.175 , 0.05 )  Deviation = 0 Body force = (0 , 0 , 0) 
 At (0.425 , 0.175 , 0.05 )  Deviation = 10 Body force = (0 , 0 , 0) 
 At (0.475 , 0.175 , 0.05 )  Deviation = -1.66575 Body force = (0 , 0 , 0) 
 At (0.525 , 0.175 , 0.05 )  Deviation = 0.151076 Body force = (-7.13896 , -46.894 , -0) 
 At (0.575 , 0.175 , 0.05 )  Deviation = 0.130716 Body force = (-5.36058 , -40.7756 , -0) 
 At (0.625 , 0.175 , 0.05 )  Deviation = 0.113063 Body force = (-4.02312 , -35.4311 , -0) 
 At (0.675 , 0.175 , 0.05 )  Deviation = 0.0977627 Body force = (-3.01597 , -30.7516 , -0) 
 At (0.725 , 0.175 , 0.05 )  Deviation = 0.0845155 Body force = (-2.25968 , -26.6732 , -0) 
 At (0.775 , 0.175 , 0.05 )  Deviation = 0.0730561 Body force = (-1.69262 , -23.1275 , -0) 
 At (0.825 , 0.175 , 0.05 )  Deviation = 0.0631463 Body force = (-1.26754 , -20.0464 , -0) 
 At (0.875 , 0.175 , 0.05 )  Deviation = 0.0545775 Body force = (-0.948926 , -17.3695 , -0) 
 At (0.925 , 0.175 , 0.05 )  Deviation = 0.0471695 Body force = (-0.710202 , -15.0452 , -0) 
 At (0.975 , 0.175 , 0.05 )  Deviation = 0.0407658 Body force = (-0.531397 , -13.0281 , -0) 
 At (1.025 , 0.175 , 0.05 )  Deviation = 0.0352307 Body force = (-0.39752 , -11.2787 , -0) 
 At (1.075 , 0.175 , 0.05 )  Deviation = 0.0304468 Body force = (-0.297314 , -9.76201 , -0) 
 At (1.125 , 0.175 , 0.05 )  Deviation = 0.0263124 Body force = (-0.22233 , -8.44767 , -0) 
 At (1.175 , 0.175 , 0.05 )  Deviation = 0.0227395 Body force = (-0.166234 , -7.3091 , -0) 
 At (1.225 , 0.175 , 0.05 )  Deviation = 0.0196516 Body force = (-0.124274 , -6.32303 , -0) 
 At (1.275 , 0.175 , 0.05 )  Deviation = 0.0169833 Body force = (-0.0928958 , -5.46932 , -0) 
 At (1.325 , 0.175 , 0.05 )  Deviation = 0.0146773 Body force = (-0.069434 , -4.73037 , -0) 
 At (1.375 , 0.175 , 0.05 )  Deviation = 0.0126843 Body force = (-0.0518918 , -4.0908 , -0) 
 At (1.425 , 0.175 , 0.05 )  Deviation = 0.0109619 Body force = (-0.0387781 , -3.53739 , -0) 
 At (1.475 , 0.175 , 0.05 )  Deviation = 0.00947324 Body force = (-0.0289751 , -3.05853 , -0) 
 At (1.525 , 0.175 , 0.05 )  Deviation = -1.66575 Body force = (0 , 0 , 0) 
 At (1.575 , 0.175 , 0.05 )  Deviation = 0 Body force = (0 , 0 , 0) 
 At (1.625 , 0.175 , 0.05 )  Deviation = 10 Body force = (0 , 0 , 0) 
 At (1.675 , 0.175 , 0.05 )  Deviation = -1.66575 Body force = (0 , 0 , 0) 
 At (1.725 , 0.175 , 0.05 )  Deviation = 0 Body force = (0 , 0 , 0) 
 At (1.775 , 0.175 , 0.05 )  Deviation = 10 Body force = (0 , 0 , 0) 
 At (1.825 , 0.175 , 0.05 )  Deviation = -1.66575 Body force = (0 , 0 , 0) 
 At (1.875 , 0.175 , 0.05 )  Deviation = 0 Body force = (0 , 0 , 0) 
 At (1.925 , 0.175 , 0.05 )  Deviation = 10 Body force = (0 , 0 , 0) 
 At (1.975 , 0.175 , 0.05 )  Deviation = -1.77954e-10 Body force = (0 , 0 , 0) 
 At (0.025 , 0.225 , 0.05 )  Deviation = 0 Body force = (0 , 0 , 0) 
 At (0.075 , 0.225 , 0.05 )  Deviation = 10 Body force = (0 , 0 , 0) 
 At (0.125 , 0.225 , 0.05 )  Deviation = -3.95583e-10 Body force = (0 , 0 , 0) 
 At (0.175 , 0.225 , 0.05 )  Deviation = 0 Body force = (0 , 0 , 0) 
 At (0.225 , 0.225 , 0.05 )  Deviation = 10 Body force = (0 , 0 , 0) 
 At (0.275 , 0.225 , 0.05 )  Deviation = -5.71388e-10 Body force = (0 , 0 , 0) 
 At (0.325 , 0.225 , 0.05 )  Deviation = 0 Body force = (0 , 0 , 0) 
 At (0.375 , 0.225 , 0.05 )  Deviation = 10 Body force = (0 , 0 , 0) 
 At (0.425 , 0.225 , 0.05 )  Deviation = -6.86712e-10 Body force = (0 , 0 , 0) 
 At (0.475 , 0.225 , 0.05 )  Deviation = 0 Body force = (0 , 0 , 0) 
 At (0.525 , 0.225 , 0.05 )  Deviation = 0.151076 Body force = (-7.13896 , -46.894 , -0) 
 At (0.575 , 0.225 , 0.05 )  Deviation = 0.130716 Body force = (-5.36058 , -40.7756 , -0) 
 At (0.625 , 0.225 , 0.05 )  Deviation = 0.113063 Body force = (-4.02312 , -35.4311 , -0) 
 At (0.675 , 0.225 , 0.05 )  Deviation = 0.0977627 Body force = (-3.01597 , -30.7516 , -0) 
 At (0.725 , 0.225 , 0.05 )  Deviation = 0.0845155 Body force = (-2.25968 , -26.6732 , -0) 
 At (0.775 , 0.225 , 0.05 )  Deviation = 0.0730561 Body force = (-1.69262 , -23.1275 , -0) 
 At (0.825 , 0.225 , 0.05 )  Deviation = 0.0631463 Body force = (-1.26754 , -20.0464 , -0) 
 At (0.875 , 0.225 , 0.05 )  Deviation = 0.0545775 Body force = (-0.948926 , -17.3695 , -0) 
 At (0.925 , 0.225 , 0.05 )  Deviation = 0.0471695 Body force = (-0.710202 , -15.0452 , -0) 
 At (0.975 , 0.225 , 0.05 )  Deviation = 0.0407658 Body force = (-0.531397 , -13.0281 , -0) 
 At (1.025 , 0.225 , 0.05 )  Deviation = 0.0352307 Body force = (-0.39752 , -11.2787 , -0) 
 At (1.075 , 0.225 , 0.05 )  Deviation = 0.0304468 Body force = (-0.297314 , -9.76201 , -0) 
 At (1.125 , 0.225 , 0.05 )  Deviation = 0.0263124 Body force = (-0.22233 , -8.44767 , -0) 
 At (1.175 , 0.225 , 0.05 )  Deviation = 0.0227395 Body force = (-0.166234 , -7.3091 , -0) 
 At (1.225 , 0.225 , 0.05 )  Deviation = 0.0196516 Body force = (-0.124274 , -6.32303 , -0) 
 At (1.275 , 0.225 , 0.05 )  Deviation = 0.0169833 Body force = (-0.0928958 , -5.46932 , -0) 
 At (1.325 , 0.225 , 0.05 )  Deviation = 0.0146773 Body force = (-0.069434 , -4.73037 , -0) 
 At (1.375 , 0.225 , 0.05 )  Deviation = 0.0126843 Body force = (-0.0518918 , -4.0908 , -0) 
 At (1.425 , 0.225 , 0.05 )  Deviation = 0.0109619 Body force = (-0.0387781 , -3.53739 , -0) 
 At (1.475 , 0.225 , 0.05 )  Deviation = 0.00947324 Body force = (-0.0289751 , -3.05853 , -0) 
 At (1.525 , 0.225 , 0.05 )  Deviation = 0 Body force = (0 , 0 , 0) 
 At (1.575 , 0.225 , 0.05 )  Deviation = 9.99781 Body force = (0 , 0 , 0) 
 At (1.625 , 0.225 , 0.05 )  Deviation = -0.438356 Body force = (0 , 0 , 0) 
 At (1.675 , 0.225 , 0.05 )  Deviation = 0 Body force = (0 , 0 , 0) 
 At (1.725 , 0.225 , 0.05 )  Deviation = 10.0006 Body force = (0 , 0 , 0) 
 At (1.775 , 0.225 , 0.05 )  Deviation = -0.61551 Body force = (0 , 0 , 0) 
 At (1.825 , 0.225 , 0.05 )  Deviation = 0 Body force = (0 , 0 , 0) 
 At (1.875 , 0.225 , 0.05 )  Deviation = 10.0007 Body force = (0 , 0 , 0) 
 At (1.925 , 0.225 , 0.05 )  Deviation = -0.769268 Body force = (0 , 0 , 0) 
 At (1.975 , 0.225 , 0.05 )  Deviation = 0 Body force = (0 , 0 , 0) 
 At (0.025 , 0.275 , 0.05 )  Deviation = 10.0002 Body force = (0 , 0 , 0) 
 At (0.075 , 0.275 , 0.05 )  Deviation = -0.902633 Body force = (0 , 0 , 0) 
 At (0.125 , 0.275 , 0.05 )  Deviation = 0 Body force = (0 , 0 , 0) 
 At (0.175 , 0.275 , 0.05 )  Deviation = 10 Body force = (0 , 0 , 0) 
 At (0.225 , 0.275 , 0.05 )  Deviation = -1.01827 Body force = (0 , 0 , 0) 
 At (0.275 , 0.275 , 0.05 )  Deviation = 0 Body force = (0 , 0 , 0) 
 At (0.325 , 0.275 , 0.05 )  Deviation = 10.0001 Body force = (0 , 0 , 0) 
 At (0.375 , 0.275 , 0.05 )  Deviation = -1.1185 Body force = (0 , 0 , 0) 
 At (0.425 , 0.275 , 0.05 )  Deviation = 0 Body force = (0 , 0 , 0) 
 At (0.475 , 0.275 , 0.05 )  Deviation = 10.0001 Body force = (0 , 0 , 0) 
 At (0.525 , 0.275 , 0.05 )  Deviation = 0.151076 Body force = (-7.13896 , -46.894 , -0) 
 At (0.575 , 0.275 , 0.05 )  Deviation = 0.130716 Body force = (-5.36058 , -40.7756 , -0) 
 At (0.625 , 0.275 , 0.05 )  Deviation = 0.113063 Body force = (-4.02312 , -35.4311 , -0) 
 At (0.675 , 0.275 , 0.05 )  Deviation = 0.0977627 Body force = (-3.01597 , -30.7516 , -0) 
 At (0.725 , 0.275 , 0.05 )  Deviation = 0.0845155 Body force = (-2.25968 , -26.6732 , -0) 
 At (0.775 , 0.275 , 0.05 )  Deviation = 0.0730561 Body force = (-1.69262 , -23.1275 , -0) 
 At (0.825 , 0.275 , 0.05 )  Deviation = 0.0631463 Body force = (-1.26754 , -20.0464 , -0) 
 At (0.875 , 0.275 , 0.05 )  Deviation = 0.0545775 Body force = (-0.948926 , -17.3695 , -0) 
 At (0.925 , 0.275 , 0.05 )  Deviation = 0.0471695 Body force = (-0.710202 , -15.0452 , -0) 
 At (0.975 , 0.275 , 0.05 )  Deviation = 0.0407658 Body force = (-0.531397 , -13.0281 , -0) 
 At (1.025 , 0.275 , 0.05 )  Deviation = 0.0352307 Body force = (-0.39752 , -11.2787 , -0) 
 At (1.075 , 0.275 , 0.05 )  Deviation = 0.0304468 Body force = (-0.297314 , -9.76201 , -0) 
 At (1.125 , 0.275 , 0.05 )  Deviation = 0.0263124 Body force = (-0.22233 , -8.44767 , -0) 
 At (1.175 , 0.275 , 0.05 )  Deviation = 0.0227395 Body force = (-0.166234 , -7.3091 , -0) 
 At (1.225 , 0.275 , 0.05 )  Deviation = 0.0196516 Body force = (-0.124274 , -6.32303 , -0) 
 At (1.275 , 0.275 , 0.05 )  Deviation = 0.0169833 Body force = (-0.0928958 , -5.46932 , -0) 
 At (1.325 , 0.275 , 0.05 )  Deviation = 0.0146773 Body force = (-0.069434 , -4.73037 , -0) 
 At (1.375 , 0.275 , 0.05 )  Deviation = 0.0126843 Body force = (-0.0518918 , -4.0908 , -0) 
 At (1.425 , 0.275 , 0.05 )  Deviation = 0.0109619 Body force = (-0.0387781 , -3.53739 , -0) 
 At (1.475 , 0.275 , 0.05 )  Deviation = 0.00947324 Body force = (-0.0289751 , -3.05853 , -0) 
 At (1.525 , 0.275 , 0.05 )  Deviation = 10 Body force = (0 , 0 , 0) 
 At (1.575 , 0.275 , 0.05 )  Deviation = -1.56132 Body force = (0 , 0 , 0) 
 At (1.625 , 0.275 , 0.05 )  Deviation = 0 Body force = (0 , 0 , 0) 
 At (1.675 , 0.275 , 0.05 )  Deviation = 10 Body force = (0 , 0 , 0) 
 At (1.725 , 0.275 , 0.05 )  Deviation = -1.58866 Body force = (0 , 0 , 0) 
 At (1.775 , 0.275 , 0.05 )  Deviation = 0 Body force = (0 , 0 , 0) 
 At (1.825 , 0.275 , 0.05 )  Deviation = 10 Body force = (0 , 0 , 0) 
 At (1.875 , 0.275 , 0.05 )  Deviation = -1.61231 Body force = (0 , 0 , 0) 
 At (1.925 , 0.275 , 0.05 )  Deviation = 0 Body force = (0 , 0 , 0) 
 At (1.975 , 0.275 , 0.05 )  Deviation = 10 Body force = (0 , 0 , 0) 
 At (0.025 , 0.325 , 0.05 )  Deviation = -1.63277 Body force = (0 , 0 , 0) 
 At (0.075 , 0.325 , 0.05 )  Deviation = 0 Body force = (0 , 0 , 0) 
 At (0.125 , 0.325 , 0.05 )  Deviation = 10 Body force = (0 , 0 , 0) 
 At (0.175 , 0.325 , 0.05 )  Deviation = -1.65046 Body force = (0 , 0 , 0) 
 At (0.225 , 0.325 , 0.05 )  Deviation = 0 Body force = (0 , 0 , 0) 
 At (0.275 , 0.325 , 0.05 )  Deviation = 9.99998 Body force = (0 , 0 , 0) 
 At (0.325 , 0.325 , 0.05 )  Deviation = -1.66575 Body force = (0 , 0 , 0) 
 At (0.375 , 0.325 , 0.05 )  Deviation = 0 Body force = (0 , 0 , 0) 
 At (0.425 , 0.325 , 0.05 )  Deviation = 10 Body force = (0 , 0 , 0) 
 At (0.475 , 0.325 , 0.05 )  Deviation = -1.66575 Body force = (0 , 0 , 0) 
 At (0.525 , 0.325 , 0.05 )  Deviation = 0.151076 Body force = (-7.13896 , -46.894 , -0) 
 At (0.575 , 0.325 , 0.05 )  Deviation = 0.130716 Body force = (-5.36058 , -40.7756 , -0) 
 At (0.625 , 0.325 , 0.05 )  Deviation = 0.113063 Body force = (-4.02312 , -35.4311 , -0) 
 At (0.675 , 0.325 , 0.05 )  Deviation = 0.0977627 Body force = (-3.01597 , -30.7516 , -0) 
 At (0.725 , 0.325 , 0.05 )  Deviation = 0.0845155 Body force = (-2.25968 , -26.6732 , -0) 
 At (0.775 , 0.325 , 0.05 )  Deviation = 0.0730561 Body force = (-1.69262 , -23.1275 , -0) 
 At (0.825 , 0.325 , 0.05 )  Deviation = 0.0631463 Body force = (-1.26754 , -20.0464 , -0) 
 At (0.875 , 0.325 , 0.05 )  Deviation = 0.0545775 Body force = (-0.948926 , -17.3695 , -0) 
 At (0.925 , 0.325 , 0.05 )  Deviation = 0.0471695 Body force = (-0.710202 , -15.0452 , -0) 
 At (0.975 , 0.325 , 0.05 )  Deviation = 0.0407658 Body force = (-0.531397 , -13.0281 , -0) 
 At (1.025 , 0.325 , 0.05 )  Deviation = 0.0352307 Body force = (-0.39752 , -11.2787 , -0) 
 At (1.075 , 0.325 , 0.05 )  Deviation = 0.0304468 Body force = (-0.297314 , -9.76201 , -0) 
 At (1.125 , 0.325 , 0.05 )  Deviation = 0.0263124 Body force = (-0.22233 , -8.44767 , -0) 
 At (1.175 , 0.325 , 0.05 )  Deviation = 0.0227395 Body force = (-0.166234 , -7.3091 , -0) 
 At (1.225 , 0.325 , 0.05 )  Deviation = 0.0196516 Body force = (-0.124274 , -6.32303 , -0) 
 At (1.275 , 0.325 , 0.05 )  Deviation = 0.0169833 Body force = (-0.0928958 , -5.46932 , -0) 
 At (1.325 , 0.325 , 0.05 )  Deviation = 0.0146773 Body force = (-0.069434 , -4.73037 , -0) 
 At (1.375 , 0.325 , 0.05 )  Deviation = 0.0126843 Body force = (-0.0518918 , -4.0908 , -0) 
 At (1.425 , 0.325 , 0.05 )  Deviation = 0.0109619 Body force = (-0.0387781 , -3.53739 , -0) 
 At (1.475 , 0.325 , 0.05 )  Deviation = 0.00947324 Body force = (-0.0289751 , -3.05853 , -0) 
 At (1.525 , 0.325 , 0.05 )  Deviation = -1.66575 Body force = (0 , 0 , 0) 
 At (1.575 , 0.325 , 0.05 )  Deviation = 0 Body force = (0 , 0 , 0) 
 At (1.625 , 0.325 , 0.05 )  Deviation = 10 Body force = (0 , 0 , 0) 
 At (1.675 , 0.325 , 0.05 )  Deviation = -1.66575 Body force = (0 , 0 , 0) 
 At (1.725 , 0.325 , 0.05 )  Deviation = 0 Body force = (0 , 0 , 0) 
 At (1.775 , 0.325 , 0.05 )  Deviation = 10 Body force = (0 , 0 , 0) 
 At (1.825 , 0.325 , 0.05 )  Deviation = -1.66575 Body force = (0 , 0 , 0) 
 At (1.875 , 0.325 , 0.05 )  Deviation = 0 Body force = (0 , 0 , 0) 
 At (1.925 , 0.325 , 0.05 )  Deviation = 10 Body force = (0 , 0 , 0) 
 At (1.975 , 0.325 , 0.05 )  Deviation = -9.50658e-11 Body force = (0 , 0 , 0) 
 At (0.025 , 0.375 , 0.05 )  Deviation = 0 Body force = (0 , 0 , 0) 
 At (0.075 , 0.375 , 0.05 )  Deviation = 10 Body force = (0 , 0 , 0) 
 At (0.125 , 0.375 , 0.05 )  Deviation = -2.18105e-10 Body force = (0 , 0 , 0) 
 At (0.175 , 0.375 , 0.05 )  Deviation = 0 Body force = (0 , 0 , 0) 
 At (0.225 , 0.375 , 0.05 )  Deviation = 10 Body force = (0 , 0 , 0) 
 At (0.275 , 0.375 , 0.05 )  Deviation = -3.21718e-10 Body force = (0 , 0 , 0) 
 At (0.325 , 0.375 , 0.05 )  Deviation = 0 Body force = (0 , 0 , 0) 
 At (0.375 , 0.375 , 0.05 )  Deviation = 10 Body force = (0 , 0 , 0) 
 At (0.425 , 0.375 , 0.05 )  Deviation = -3.92265e-10 Body force = (0 , 0 , 0) 
 At (0.475 , 0.375 , 0.05 )  Deviation = 0 Body force = (0 , 0 , 0) 
 At (0.525 , 0.375 , 0.05 )  Deviation = 0.151076 Body force = (-7.13896 , -46.894 , -0) 
 At (0.575 , 0.375 , 0.05 )  Deviation = 0.130716 Body force = (-5.36058 , -40.7756 , -0) 
 At (0.625 , 0.375 , 0.05 )  Deviation = 0.113063 Body force = (-4.02312 , -35.4311 , -0) 
 At (0.675 , 0.375 , 0.05 )  Deviation = 0.0977627 Body force = (-3.01597 , -30.7516 , -0) 
 At (0.725 , 0.375 , 0.05 )  Deviation = 0.0845155 Body force = (-2.25968 , -26.6732 , -0) 
 At (0.775 , 0.375 , 0.05 )  Deviation = 0.0730561 Body force = (-1.69262 , -23.1275 , -0) 
 At (0.825 , 0.375 , 0.05 )  Deviation = 0.0631463 Body force = (-1.26754 , -20.0464 , -0) 
 At (0.875 , 0.375 , 0.05 )  Deviation = 0.0545775 Body force = (-0.948926 , -17.3695 , -0) 
 At (0.925 , 0.375 , 0.05 )  Deviation = 0.0471695 Body force = (-0.710202 , -15.0452 , -0) 
 At (0.975 , 0.375 , 0.05 )  Deviation = 0.0407658 Body force = (-0.531397 , -13.0281 , -0) 
 At (1.025 , 0.375 , 0.05 )  Deviation = 0.0352307 Body force = (-0.39752 , -11.2787 , -0) 
 At (1.075 , 0.375 , 0.05 )  Deviation = 0.0304468 Body force = (-0.297314 , -9.76201 , -0) 
 At (1.125 , 0.375 , 0.05 )  Deviation = 0.0263124 Body force = (-0.22233 , -8.44767 , -0) 
 At (1.175 , 0.375 , 0.05 )  Deviation = 0.0227395 Body force = (-0.166234 , -7.3091 , -0) 
 At (1.225 , 0.375 , 0.05 )  Deviation = 0.0196516 Body force = (-0.124274 , -6.32303 , -0) 
 At (1.275 , 0.375 , 0.05 )  Deviation = 0.0169833 Body force = (-0.0928958 , -5.46932 , -0) 
 At (1.325 , 0.375 , 0.05 )  Deviation = 0.0146773 Body force = (-0.069434 , -4.73037 , -0) 
 At (1.375 , 0.375 , 0.05 )  Deviation = 0.0126843 Body force = (-0.0518918 , -4.0908 , -0) 
 At (1.425 , 0.375 , 0.05 )  Deviation = 0.0109619 Body force = (-0.0387781 , -3.53739 , -0) 
 At (1.475 , 0.375 , 0.05 )  Deviation = 0.00947324 Body force = (-0.0289751 , -3.05853 , -0) 
 At (1.525 , 0.375 , 0.05 )  Deviation = 0 Body force = (0 , 0 , 0) 
 At (1.575 , 0.375 , 0.05 )  Deviation = 9.99781 Body force = (0 , 0 , 0) 
 At (1.625 , 0.375 , 0.05 )  Deviation = -0.438356 Body force = (0 , 0 , 0) 
 At (1.675 , 0.375 , 0.05 )  Deviation = 0 Body force = (0 , 0 , 0) 
 At (1.725 , 0.375 , 0.05 )  Deviation = 10.0006 Body force = (0 , 0 , 0) 
 At (1.775 , 0.375 , 0.05 )  Deviation = -0.61551 Body force = (0 , 0 , 0) 
 At (1.825 , 0.375 , 0.05 )  Deviation = 0 Body force = (0 , 0 , 0) 
 At (1.875 , 0.375 , 0.05 )  Deviation = 10.0007 Body force = (0 , 0 , 0) 
 At (1.925 , 0.375 , 0.05 )  Deviation = -0.769268 Body force = (0 , 0 , 0) 
 At (1.975 , 0.375 , 0.05 )  Deviation = 0 Body force = (0 , 0 , 0) 
 At (0.025 , 0.425 , 0.05 )  Deviation = 10.0002 Body force = (0 , 0 , 0) 
 At (0.075 , 0.425 , 0.05 )  Deviation = -0.902633 Body force = (0 , 0 , 0) 
 At (0.125 , 0.425 , 0.05 )  Deviation = 0 Body force = (0 , 0 , 0) 
 At (0.175 , 0.425 , 0.05 )  Deviation = 10 Body force = (0 , 0 , 0) 
 At (0.225 , 0.425 , 0.05 )  Deviation = -1.01827 Body force = (0 , 0 , 0) 
 At (0.275 , 0.425 , 0.05 )  Deviation = 0 Body force = (0 , 0 , 0) 
 At (0.325 , 0.425 , 0.05 )  Deviation = 10.0001 Body force = (0 , 0 , 0) 
 At (0.375 , 0.425 , 0.05 )  Deviation = -1.1185 Body force = (0 , 0 , 0) 
 At (0.425 , 0.425 , 0.05 )  Deviation = 0 Body force = (0 , 0 , 0) 
 At (0.475 , 0.425 , 0.05 )  Deviation = 10.0001 Body force = (0 , 0 , 0) 
 At (0.525 , 0.425 , 0.05 )  Deviation = 0.151076 Body force = (-7.13896 , -46.894 , -0) 
 At (0.575 , 0.425 , 0.05 )  Deviation = 0.130716 Body force = (-5.36058 , -40.7756 , -0) 
 At (0.625 , 0.425 , 0.05 )  Deviation = 0.113063 Body force = (-4.02312 , -35.4311 , -0) 
 At (0.675 , 0.425 , 0.05 )  Deviation = 0.0977627 Body force = (-3.01598 , -30.7516 , -0) 
 At (0.725 , 0.425 , 0.05 )  Deviation = 0.0845155 Body force = (-2.25968 , -26.6732 , -0) 
 At (0.775 , 0.425 , 0.05 )  Deviation = 0.0730561 Body force = (-1.69262 , -23.1275 , -0) 
 At (0.825 , 0.425 , 0.05 )  Deviation = 0.0631463 Body force = (-1.26754 , -20.0464 , -0) 
 At (0.875 , 0.425 , 0.05 )  Deviation = 0.0545775 Body force = (-0.948926 , -17.3695 , -0) 
 At (0.925 , 0.425 , 0.05 )  Deviation = 0.0471695 Body force = (-0.710202 , -15.0452 , -0) 
 At (0.975 , 0.425 , 0.05 )  Deviation = 0.0407658 Body force = (-0.531397 , -13.0281 , -0) 
 At (1.025 , 0.425 , 0.05 )  Deviation = 0.0352307 Body force = (-0.39752 , -11.2787 , -0) 
 At (1.075 , 0.425 , 0.05 )  Deviation = 0.0304468 Body force = (-0.297314 , -9.76201 , -0) 
 At (1.125 , 0.425 , 0.05 )  Deviation = 0.0263124 Body force = (-0.22233 , -8.44767 , -0) 
 At (1.175 , 0.425 , 0.05 )  Deviation = 0.0227395 Body force = (-0.166234 , -7.3091 , -0) 
 At (1.225 , 0.425 , 0.05 )  Deviation = 0.0196516 Body force = (-0.124274 , -6.32303 , -0) 
 At (1.275 , 0.425 , 0.05 )  Deviation = 0.0169833 Body force = (-0.0928958 , -5.46932 , -0) 
 At (1.325 , 0.425 , 0.05 )  Deviation = 0.0146773 Body force = (-0.069434 , -4.73037 , -0) 
 At (1.375 , 0.425 , 0.05 )  Deviation = 0.0126843 Body force = (-0.0518918 , -4.0908 , -0) 
 At (1.425 , 0.425 , 0.05 )  Deviation = 0.0109619 Body force = (-0.0387781 , -3.53739 , -0) 
 At (1.475 , 0.425 , 0.05 )  Deviation = 0.00947324 Body force = (-0.0289751 , -3.05853 , -0) 
 At (1.525 , 0.425 , 0.05 )  Deviation = 10 Body force = (0 , 0 , 0) 
 At (1.575 , 0.425 , 0.05 )  Deviation = -1.56132 Body force = (0 , 0 , 0) 
 At (1.625 , 0.425 , 0.05 )  Deviation = 0 Body force = (0 , 0 , 0) 
 At (1.675 , 0.425 , 0.05 )  Deviation = 10 Body force = (0 , 0 , 0) 
 At (1.725 , 0.425 , 0.05 )  Deviation = -1.58866 Body force = (0 , 0 , 0) 
 At (1.775 , 0.425 , 0.05 )  Deviation = 0 Body force = (0 , 0 , 0) 
 At (1.825 , 0.425 , 0.05 )  Deviation = 10 Body force = (0 , 0 , 0) 
 At (1.875 , 0.425 , 0.05 )  Deviation = -1.61231 Body force = (0 , 0 , 0) 
 At (1.925 , 0.425 , 0.05 )  Deviation = 0 Body force = (0 , 0 , 0) 
 At (1.975 , 0.425 , 0.05 )  Deviation = 10 Body force = (0 , 0 , 0) 
 At (0.025 , 0.475 , 0.05 )  Deviation = -1.63277 Body force = (0 , 0 , 0) 
 At (0.075 , 0.475 , 0.05 )  Deviation = 0 Body force = (0 , 0 , 0) 
 At (0.125 , 0.475 , 0.05 )  Deviation = 10 Body force = (0 , 0 , 0) 
 At (0.175 , 0.475 , 0.05 )  Deviation = -1.65046 Body force = (0 , 0 , 0) 
 At (0.225 , 0.475 , 0.05 )  Deviation = 0 Body force = (0 , 0 , 0) 
 At (0.275 , 0.475 , 0.05 )  Deviation = 9.99998 Body force = (0 , 0 , 0) 
 At (0.325 , 0.475 , 0.05 )  Deviation = -1.66575 Body force = (0 , 0 , 0) 
 At (0.375 , 0.475 , 0.05 )  Deviation = 0 Body force = (0 , 0 , 0) 
 At (0.425 , 0.475 , 0.05 )  Deviation = 10 Body force = (0 , 0 , 0) 
 At (0.475 , 0.475 , 0.05 )  Deviation = -1.66575 Body force = (0 , 0 , 0) 
 At (0.525 , 0.475 , 0.05 )  Deviation = 0.151076 Body force = (-7.13896 , -46.894 , -0) 
 At (0.575 , 0.475 , 0.05 )  Deviation = 0.130716 Body force = (-5.36058 , -40.7756 , -0) 
 At (0.625 , 0.475 , 0.05 )  Deviation = 0.113063 Body force = (-4.02312 , -35.4311 , -0) 
 At (0.675 , 0.475 , 0.05 )  Deviation = 0.0977627 Body force = (-3.01598 , -30.7516 , -0) 
 At (0.725 , 0.475 , 0.05 )  Deviation = 0.0845155 Body force = (-2.25968 , -26.6732 , -0) 
 At (0.775 , 0.475 , 0.05 )  Deviation = 0.0730561 Body force = (-1.69262 , -23.1275 , -0) 
 At (0.825 , 0.475 , 0.05 )  Deviation = 0.0631463 Body force = (-1.26754 , -20.0464 , -0) 
 At (0.875 , 0.475 , 0.05 )  Deviation = 0.0545775 Body force = (-0.948926 , -17.3695 , -0) 
 At (0.925 , 0.475 , 0.05 )  Deviation = 0.0471695 Body force = (-0.710202 , -15.0452 , -0) 
 At (0.975 , 0.475 , 0.05 )  Deviation = 0.0407658 Body force = (-0.531397 , -13.0281 , -0) 
 At (1.025 , 0.475 , 0.05 )  Deviation = 0.0352307 Body force = (-0.39752 , -11.2787 , -0) 
 At (1.075 , 0.475 , 0.05 )  Deviation = 0.0304468 Body force = (-0.297314 , -9.76201 , -0) 
 At (1.125 , 0.475 , 0.05 )  Deviation = 0.0263124 Body force = (-0.22233 , -8.44767 , -0) 
 At (1.175 , 0.475 , 0.05 )  Deviation = 0.0227395 Body force = (-0.166234 , -7.3091 , -0) 
 At (1.225 , 0.475 , 0.05 )  Deviation = 0.0196516 Body force = (-0.124274 , -6.32303 , -0) 
 At (1.275 , 0.475 , 0.05 )  Deviation = 0.0169833 Body force = (-0.0928958 , -5.46932 , -0) 
 At (1.325 , 0.475 , 0.05 )  Deviation = 0.0146773 Body force = (-0.069434 , -4.73037 , -0) 
 At (1.375 , 0.475 , 0.05 )  Deviation = 0.0126843 Body force = (-0.0518918 , -4.0908 , -0) 
 At (1.425 , 0.475 , 0.05 )  Deviation = 0.0109619 Body force = (-0.0387781 , -3.53739 , -0) 
 At (1.475 , 0.475 , 0.05 )  Deviation = 0.00947324 Body force = (-0.0289751 , -3.05853 , -0) 
 At (1.525 , 0.475 , 0.05 )  Deviation = -1.66575 Body force = (0 , 0 , 0) 
 At (1.575 , 0.475 , 0.05 )  Deviation = 0 Body force = (0 , 0 , 0) 
 At (1.625 , 0.475 , 0.05 )  Deviation = 10 Body force = (0 , 0 , 0) 
 At (1.675 , 0.475 , 0.05 )  Deviation = -1.66575 Body force = (0 , 0 , 0) 
 At (1.725 , 0.475 , 0.05 )  Deviation = 0 Body force = (0 , 0 , 0) 
 At (1.775 , 0.475 , 0.05 )  Deviation = 10 Body force = (0 , 0 , 0) 
 At (1.825 , 0.475 , 0.05 )  Deviation = -1.66575 Body force = (0 , 0 , 0) 
 At (1.875 , 0.475 , 0.05 )  Deviation = 0 Body force = (0 , 0 , 0) 
 At (1.925 , 0.475 , 0.05 )  Deviation = 10 Body force = (0 , 0 , 0) 
 At (1.975 , 0.475 , 0.05 )  Deviation = -6.19177e-12 Body force = (0 , 0 , 0) 
 At (0.025 , 0.525 , 0.05 )  Deviation = 0 Body force = (0 , 0 , 0) 
 At (0.075 , 0.525 , 0.05 )  Deviation = 10 Body force = (0 , 0 , 0) 
 At (0.125 , 0.525 , 0.05 )  Deviation = -2.60003e-11 Body force = (0 , 0 , 0) 
 At (0.175 , 0.525 , 0.05 )  Deviation = 0 Body force = (0 , 0 , 0) 
 At (0.225 , 0.525 , 0.05 )  Deviation = 10 Body force = (0 , 0 , 0) 
 At (0.275 , 0.525 , 0.05 )  Deviation = -5.06914e-11 Body force = (0 , 0 , 0) 
 At (0.325 , 0.525 , 0.05 )  Deviation = 0 Body force = (0 , 0 , 0) 
 At (0.375 , 0.525 , 0.05 )  Deviation = 10 Body force = (0 , 0 , 0) 
 At (0.425 , 0.525 , 0.05 )  Deviation = -7.3061e-11 Body force = (0 , 0 , 0) 
 At (0.475 , 0.525 , 0.05 )  Deviation = 0 Body force = (0 , 0 , 0) 
 At (0.525 , 0.525 , 0.05 )  Deviation = 0.151076 Body force = (-7.13896 , -46.894 , -0) 
 At (0.575 , 0.525 , 0.05 )  Deviation = 0.130716 Body force = (-5.36058 , -40.7756 , -0) 
 At (0.625 , 0.525 , 0.05 )  Deviation = 0.113063 Body force = (-4.02312 , -35.4311 , -0) 
 At (0.675 , 0.525 , 0.05 )  Deviation = 0.0977627 Body force = (-3.01598 , -30.7516 , -0) 
 At (0.725 , 0.525 , 0.05 )  Deviation = 0.0845155 Body force = (-2.25968 , -26.6732 , -0) 
 At (0.775 , 0.525 , 0.05 )  Deviation = 0.0730561 Body force = (-1.69262 , -23.1275 , -0) 
 At (0.825 , 0.525 , 0.05 )  Deviation = 0.0631463 Body force = (-1.26754 , -20.0464 , -0) 
 At (0.875 , 0.525 , 0.05 )  Deviation = 0.0545775 Body force = (-0.948926 , -17.3695 , -0) 
 At (0.925 , 0.525 , 0.05 )  Deviation = 0.0471695 Body force = (-0.710202 , -15.0452 , -0) 
 At (0.975 , 0.525 , 0.05 )  Deviation = 0.0407658 Body force = (-0.531397 , -13.0281 , -0) 
 At (1.025 , 0.525 , 0.05 )  Deviation = 0.0352307 Body force = (-0.39752 , -11.2787 , -0) 
 At (1.075 , 0.525 , 0.05 )  Deviation = 0.0304468 Body force = (-0.297314 , -9.76201 , -0) 
 At (1.125 , 0.525 , 0.05 )  Deviation = 0.0263124 Body force = (-0.22233 , -8.44767 , -0) 
 At (1.175 , 0.525 , 0.05 )  Deviation = 0.0227395 Body force = (-0.166234 , -7.3091 , -0) 
 At (1.225 , 0.525 , 0.05 )  Deviation = 0.0196516 Body force = (-0.124274 , -6.32303 , -0) 
 At (1.275 , 0.525 , 0.05 )  Deviation = 0.0169833 Body force = (-0.0928958 , -5.46932 , -0) 
 At (1.325 , 0.525 , 0.05 )  Deviation = 0.0146773 Body force = (-0.069434 , -4.73036 , -0) 
 At (1.375 , 0.525 , 0.05 )  Deviation = 0.0126843 Body force = (-0.0518918 , -4.0908 , -0) 
 At (1.425 , 0.525 , 0.05 )  Deviation = 0.0109619 Body force = (-0.0387781 , -3.53739 , -0) 
 At (1.475 , 0.525 , 0.05 )  Deviation = 0.00947324 Body force = (-0.0289751 , -3.05853 , -0) 
 At (1.525 , 0.525 , 0.05 )  Deviation = 0 Body force = (0 , 0 , 0) 
 At (1.575 , 0.525 , 0.05 )  Deviation = 9.99781 Body force = (0 , 0 , 0) 
 At (1.625 , 0.525 , 0.05 )  Deviation = -0.438356 Body force = (0 , 0 , 0) 
 At (1.675 , 0.525 , 0.05 )  Deviation = 0 Body force = (0 , 0 , 0) 
 At (1.725 , 0.525 , 0.05 )  Deviation = 10.0006 Body force = (0 , 0 , 0) 
 At (1.775 , 0.525 , 0.05 )  Deviation = -0.61551 Body force = (0 , 0 , 0) 
 At (1.825 , 0.525 , 0.05 )  Deviation = 0 Body force = (0 , 0 , 0) 
 At (1.875 , 0.525 , 0.05 )  Deviation = 10.0007 Body force = (0 , 0 , 0) 
 At (1.925 , 0.525 , 0.05 )  Deviation = -0.769268 Body force = (0 , 0 , 0) 
 At (1.975 , 0.525 , 0.05 )  Deviation = 0 Body force = (0 , 0 , 0) 
 At (0.025 , 0.575 , 0.05 )  Deviation = 10.0002 Body force = (0 , 0 , 0) 
 At (0.075 , 0.575 , 0.05 )  Deviation = -0.902633 Body force = (0 , 0 , 0) 
 At (0.125 , 0.575 , 0.05 )  Deviation = 0 Body force = (0 , 0 , 0) 
 At (0.175 , 0.575 , 0.05 )  Deviation = 10 Body force = (0 , 0 , 0) 
 At (0.225 , 0.575 , 0.05 )  Deviation = -1.01827 Body force = (0 , 0 , 0) 
 At (0.275 , 0.575 , 0.05 )  Deviation = 0 Body force = (0 , 0 , 0) 
 At (0.325 , 0.575 , 0.05 )  Deviation = 10.0001 Body force = (0 , 0 , 0) 
 At (0.375 , 0.575 , 0.05 )  Deviation = -1.1185 Body force = (0 , 0 , 0) 
 At (0.425 , 0.575 , 0.05 )  Deviation = 0 Body force = (0 , 0 , 0) 
 At (0.475 , 0.575 , 0.05 )  Deviation = 10.0001 Body force = (0 , 0 , 0) 
 At (0.525 , 0.575 , 0.05 )  Deviation = 0.151076 Body force = (-7.13896 , -46.894 , -0) 
 At (0.575 , 0.575 , 0.05 )  Deviation = 0.130716 Body force = (-5.36058 , -40.7756 , -0) 
 At (0.625 , 0.575 , 0.05 )  Deviation = 0.113063 Body force = (-4.02312 , -35.4311 , -0) 
 At (0.675 , 0.575 , 0.05 )  Deviation = 0.0977627 Body force = (-3.01598 , -30.7516 , -0) 
 At (0.725 , 0.575 , 0.05 )  Deviation = 0.0845155 Body force = (-2.25968 , -26.6732 , -0) 
 At (0.775 , 0.575 , 0.05 )  Deviation = 0.0730561 Body force = (-1.69262 , -23.1275 , -0) 
 At (0.825 , 0.575 , 0.05 )  Deviation = 0.0631463 Body force = (-1.26754 , -20.0464 , -0) 
 At (0.875 , 0.575 , 0.05 )  Deviation = 0.0545775 Body force = (-0.948926 , -17.3695 , -0) 
 At (0.925 , 0.575 , 0.05 )  Deviation = 0.0471695 Body force = (-0.710202 , -15.0452 , -0) 
 At (0.975 , 0.575 , 0.05 )  Deviation = 0.0407658 Body force = (-0.531397 , -13.0281 , -0) 
 At (1.025 , 0.575 , 0.05 )  Deviation = 0.0352307 Body force = (-0.39752 , -11.2787 , -0) 
 At (1.075 , 0.575 , 0.05 )  Deviation = 0.0304468 Body force = (-0.297314 , -9.76201 , -0) 
 At (1.125 , 0.575 , 0.05 )  Deviation = 0.0263124 Body force = (-0.22233 , -8.44767 , -0) 
 At (1.175 , 0.575 , 0.05 )  Deviation = 0.0227395 Body force = (-0.166234 , -7.3091 , -0) 
 At (1.225 , 0.575 , 0.05 )  Deviation = 0.0196516 Body force = (-0.124274 , -6.32303 , -0) 
 At (1.275 , 0.575 , 0.05 )  Deviation = 0.0169833 Body force = (-0.0928958 , -5.46932 , -0) 
 At (1.325 , 0.575 , 0.05 )  Deviation = 0.0146773 Body force = (-0.069434 , -4.73036 , -0) 
 At (1.375 , 0.575 , 0.05 )  Deviation = 0.0126843 Body force = (-0.0518918 , -4.0908 , -0) 
 At (1.425 , 0.575 , 0.05 )  Deviation = 0.0109619 Body force = (-0.0387781 , -3.53739 , -0) 
 At (1.475 , 0.575 , 0.05 )  Deviation = 0.00947324 Body force = (-0.0289751 , -3.05853 , -0) 
 At (1.525 , 0.575 , 0.05 )  Deviation = 10 Body force = (0 , 0 , 0) 
 At (1.575 , 0.575 , 0.05 )  Deviation = -1.56132 Body force = (0 , 0 , 0) 
 At (1.625 , 0.575 , 0.05 )  Deviation = 0 Body force = (0 , 0 , 0) 
 At (1.675 , 0.575 , 0.05 )  Deviation = 10 Body force = (0 , 0 , 0) 
 At (1.725 , 0.575 , 0.05 )  Deviation = -1.58866 Body force = (0 , 0 , 0) 
 At (1.775 , 0.575 , 0.05 )  Deviation = 0 Body force = (0 , 0 , 0) 
 At (1.825 , 0.575 , 0.05 )  Deviation = 10 Body force = (0 , 0 , 0) 
 At (1.875 , 0.575 , 0.05 )  Deviation = -1.61231 Body force = (0 , 0 , 0) 
 At (1.925 , 0.575 , 0.05 )  Deviation = 0 Body force = (0 , 0 , 0) 
 At (1.975 , 0.575 , 0.05 )  Deviation = 10 Body force = (0 , 0 , 0) 
 At (0.025 , 0.625 , 0.05 )  Deviation = -1.63277 Body force = (0 , 0 , 0) 
 At (0.075 , 0.625 , 0.05 )  Deviation = 0 Body force = (0 , 0 , 0) 
 At (0.125 , 0.625 , 0.05 )  Deviation = 10 Body force = (0 , 0 , 0) 
 At (0.175 , 0.625 , 0.05 )  Deviation = -1.65046 Body force = (0 , 0 , 0) 
 At (0.225 , 0.625 , 0.05 )  Deviation = 0 Body force = (0 , 0 , 0) 
 At (0.275 , 0.625 , 0.05 )  Deviation = 9.99998 Body force = (0 , 0 , 0) 
 At (0.325 , 0.625 , 0.05 )  Deviation = -1.66575 Body force = (0 , 0 , 0) 
 At (0.375 , 0.625 , 0.05 )  Deviation = 0 Body force = (0 , 0 , 0) 
 At (0.425 , 0.625 , 0.05 )  Deviation = 10 Body force = (0 , 0 , 0) 
 At (0.475 , 0.625 , 0.05 )  Deviation = -1.66575 Body force = (0 , 0 , 0) 
 At (0.525 , 0.625 , 0.05 )  Deviation = 0.151076 Body force = (-7.13896 , -46.894 , -0) 
 At (0.575 , 0.625 , 0.05 )  Deviation = 0.130716 Body force = (-5.36058 , -40.7756 , -0) 
 At (0.625 , 0.625 , 0.05 )  Deviation = 0.113063 Body force = (-4.02312 , -35.4311 , -0) 
 At (0.675 , 0.625 , 0.05 )  Deviation = 0.0977627 Body force = (-3.01598 , -30.7516 , -0) 
 At (0.725 , 0.625 , 0.05 )  Deviation = 0.0845155 Body force = (-2.25968 , -26.6732 , -0) 
 At (0.775 , 0.625 , 0.05 )  Deviation = 0.0730561 Body force = (-1.69262 , -23.1275 , -0) 
 At (0.825 , 0.625 , 0.05 )  Deviation = 0.0631463 Body force = (-1.26754 , -20.0464 , -0) 
 At (0.875 , 0.625 , 0.05 )  Deviation = 0.0545775 Body force = (-0.948926 , -17.3695 , -0) 
 At (0.925 , 0.625 , 0.05 )  Deviation = 0.0471695 Body force = (-0.710202 , -15.0452 , -0) 
 At (0.975 , 0.625 , 0.05 )  Deviation = 0.0407658 Body force = (-0.531397 , -13.0281 , -0) 
 At (1.025 , 0.625 , 0.05 )  Deviation = 0.0352307 Body force = (-0.39752 , -11.2787 , -0) 
 At (1.075 , 0.625 , 0.05 )  Deviation = 0.0304468 Body force = (-0.297314 , -9.76201 , -0) 
 At (1.125 , 0.625 , 0.05 )  Deviation = 0.0263124 Body force = (-0.22233 , -8.44767 , -0) 
 At (1.175 , 0.625 , 0.05 )  Deviation = 0.0227395 Body force = (-0.166234 , -7.3091 , -0) 
 At (1.225 , 0.625 , 0.05 )  Deviation = 0.0196516 Body force = (-0.124274 , -6.32303 , -0) 
 At (1.275 , 0.625 , 0.05 )  Deviation = 0.0169833 Body force = (-0.0928958 , -5.46932 , -0) 
 At (1.325 , 0.625 , 0.05 )  Deviation = 0.0146773 Body force = (-0.069434 , -4.73036 , -0) 
 At (1.375 , 0.625 , 0.05 )  Deviation = 0.0126843 Body force = (-0.0518918 , -4.0908 , -0) 
 At (1.425 , 0.625 , 0.05 )  Deviation = 0.0109619 Body force = (-0.0387781 , -3.53739 , -0) 
 At (1.475 , 0.625 , 0.05 )  Deviation = 0.00947324 Body force = (-0.0289751 , -3.05853 , -0) 
 At (1.525 , 0.625 , 0.05 )  Deviation = -1.66575 Body force = (0 , 0 , 0) 
 At (1.575 , 0.625 , 0.05 )  Deviation = 0 Body force = (0 , 0 , 0) 
 At (1.625 , 0.625 , 0.05 )  Deviation = 10 Body force = (0 , 0 , 0) 
 At (1.675 , 0.625 , 0.05 )  Deviation = -1.66575 Body force = (0 , 0 , 0) 
 At (1.725 , 0.625 , 0.05 )  Deviation = 0 Body force = (0 , 0 , 0) 
 At (1.775 , 0.625 , 0.05 )  Deviation = 10 Body force = (0 , 0 , 0) 
 At (1.825 , 0.625 , 0.05 )  Deviation = -1.66575 Body force = (0 , 0 , 0) 
 At (1.875 , 0.625 , 0.05 )  Deviation = 0 Body force = (0 , 0 , 0) 
 At (1.925 , 0.625 , 0.05 )  Deviation = 10 Body force = (0 , 0 , 0) 
 At (1.975 , 0.625 , 0.05 )  Deviation = 8.27525e-11 Body force = (0 , 0 , 0) 
 At (0.025 , 0.675 , 0.05 )  Deviation = 0 Body force = (0 , 0 , 0) 
 At (0.075 , 0.675 , 0.05 )  Deviation = 10 Body force = (0 , 0 , 0) 
 At (0.125 , 0.675 , 0.05 )  Deviation = 1.65854e-10 Body force = (0 , 0 , 0) 
 At (0.175 , 0.675 , 0.05 )  Deviation = 0 Body force = (0 , 0 , 0) 
 At (0.225 , 0.675 , 0.05 )  Deviation = 10 Body force = (0 , 0 , 0) 
 At (0.275 , 0.675 , 0.05 )  Deviation = 2.20243e-10 Body force = (0 , 0 , 0) 
 At (0.325 , 0.675 , 0.05 )  Deviation = 0 Body force = (0 , 0 , 0) 
 At (0.375 , 0.675 , 0.05 )  Deviation = 10 Body force = (0 , 0 , 0) 
 At (0.425 , 0.675 , 0.05 )  Deviation = 2.46566e-10 Body force = (0 , 0 , 0) 
 At (0.475 , 0.675 , 0.05 )  Deviation = 0 Body force = (0 , 0 , 0) 
 At (0.525 , 0.675 , 0.05 )  Deviation = 0.151076 Body force = (-7.13896 , -46.894 , -0) 
 At (0.575 , 0.675 , 0.05 )  Deviation = 0.130716 Body force = (-5.36058 , -40.7756 , -0) 
 At (0.625 , 0.675 , 0.05 )  Deviation = 0.113063 Body force = (-4.02312 , -35.4311 , -0) 
 At (0.675 , 0.675 , 0.05 )  Deviation = 0.0977628 Body force = (-3.01598 , -30.7516 , -0) 
 At (0.725 , 0.675 , 0.05 )  Deviation = 0.0845155 Body force = (-2.25968 , -26.6732 , -0) 
 At (0.775 , 0.675 , 0.05 )  Deviation = 0.0730561 Body force = (-1.69262 , -23.1275 , -0) 
 At (0.825 , 0.675 , 0.05 )  Deviation = 0.0631463 Body force = (-1.26754 , -20.0464 , -0) 
 At (0.875 , 0.675 , 0.05 )  Deviation = 0.0545775 Body force = (-0.948926 , -17.3695 , -0) 
 At (0.925 , 0.675 , 0.05 )  Deviation = 0.0471695 Body force = (-0.710202 , -15.0452 , -0) 
 At (0.975 , 0.675 , 0.05 )  Deviation = 0.0407658 Body force = (-0.531397 , -13.0281 , -0) 
 At (1.025 , 0.675 , 0.05 )  Deviation = 0.0352307 Body force = (-0.39752 , -11.2787 , -0) 
 At (1.075 , 0.675 , 0.05 )  Deviation = 0.0304468 Body force = (-0.297314 , -9.76201 , -0) 
 At (1.125 , 0.675 , 0.05 )  Deviation = 0.0263124 Body force = (-0.22233 , -8.44767 , -0) 
 At (1.175 , 0.675 , 0.05 )  Deviation = 0.0227395 Body force = (-0.166234 , -7.3091 , -0) 
 At (1.225 , 0.675 , 0.05 )  Deviation = 0.0196516 Body force = (-0.124274 , -6.32303 , -0) 
 At (1.275 , 0.675 , 0.05 )  Deviation = 0.0169833 Body force = (-0.0928958 , -5.46932 , -0) 
 At (1.325 , 0.675 , 0.05 )  Deviation = 0.0146773 Body force = (-0.069434 , -4.73036 , -0) 
 At (1.375 , 0.675 , 0.05 )  Deviation = 0.0126843 Body force = (-0.0518918 , -4.0908 , -0) 
 At (1.425 , 0.675 , 0.05 )  Deviation = 0.0109619 Body force = (-0.0387781 , -3.53739 , -0) 
 At (1.475 , 0.675 , 0.05 )  Deviation = 0.00947324 Body force = (-0.0289751 , -3.05853 , -0) 
 At (1.525 , 0.675 , 0.05 )  Deviation = 0 Body force = (0 , 0 , 0) 
 At (1.575 , 0.675 , 0.05 )  Deviation = 9.99781 Body force = (0 , 0 , 0) 
 At (1.625 , 0.675 , 0.05 )  Deviation = -0.438356 Body force = (0 , 0 , 0) 
 At (1.675 , 0.675 , 0.05 )  Deviation = 0 Body force = (0 , 0 , 0) 
 At (1.725 , 0.675 , 0.05 )  Deviation = 10.0006 Body force = (0 , 0 , 0) 
 At (1.775 , 0.675 , 0.05 )  Deviation = -0.61551 Body force = (0 , 0 , 0) 
 At (1.825 , 0.675 , 0.05 )  Deviation = 0 Body force = (0 , 0 , 0) 
 At (1.875 , 0.675 , 0.05 )  Deviation = 10.0007 Body force = (0 , 0 , 0) 
 At (1.925 , 0.675 , 0.05 )  Deviation = -0.769268 Body force = (0 , 0 , 0) 
 At (1.975 , 0.675 , 0.05 )  Deviation = 0 Body force = (0 , 0 , 0) 
 At (0.025 , 0.725 , 0.05 )  Deviation = 10.0002 Body force = (0 , 0 , 0) 
 At (0.075 , 0.725 , 0.05 )  Deviation = -0.902633 Body force = (0 , 0 , 0) 
 At (0.125 , 0.725 , 0.05 )  Deviation = 0 Body force = (0 , 0 , 0) 
 At (0.175 , 0.725 , 0.05 )  Deviation = 10 Body force = (0 , 0 , 0) 
 At (0.225 , 0.725 , 0.05 )  Deviation = -1.01827 Body force = (0 , 0 , 0) 
 At (0.275 , 0.725 , 0.05 )  Deviation = 0 Body force = (0 , 0 , 0) 
 At (0.325 , 0.725 , 0.05 )  Deviation = 10.0001 Body force = (0 , 0 , 0) 
 At (0.375 , 0.725 , 0.05 )  Deviation = -1.1185 Body force = (0 , 0 , 0) 
 At (0.425 , 0.725 , 0.05 )  Deviation = 0 Body force = (0 , 0 , 0) 
 At (0.475 , 0.725 , 0.05 )  Deviation = 10.0001 Body force = (0 , 0 , 0) 
 At (0.525 , 0.725 , 0.05 )  Deviation = 0.151076 Body force = (-7.13896 , -46.894 , -0) 
 At (0.575 , 0.725 , 0.05 )  Deviation = 0.130716 Body force = (-5.36058 , -40.7756 , -0) 
 At (0.625 , 0.725 , 0.05 )  Deviation = 0.113063 Body force = (-4.02312 , -35.4311 , -0) 
 At (0.675 , 0.725 , 0.05 )  Deviation = 0.0977628 Body force = (-3.01598 , -30.7516 , -0) 
 At (0.725 , 0.725 , 0.05 )  Deviation = 0.0845155 Body force = (-2.25968 , -26.6732 , -0) 
 At (0.775 , 0.725 , 0.05 )  Deviation = 0.0730561 Body force = (-1.69262 , -23.1275 , -0) 
 At (0.825 , 0.725 , 0.05 )  Deviation = 0.0631463 Body force = (-1.26754 , -20.0464 , -0) 
 At (0.875 , 0.725 , 0.05 )  Deviation = 0.0545775 Body force = (-0.948926 , -17.3695 , -0) 
 At (0.925 , 0.725 , 0.05 )  Deviation = 0.0471695 Body force = (-0.710202 , -15.0452 , -0) 
 At (0.975 , 0.725 , 0.05 )  Deviation = 0.0407658 Body force = (-0.531397 , -13.0281 , -0) 
 At (1.025 , 0.725 , 0.05 )  Deviation = 0.0352307 Body force = (-0.39752 , -11.2787 , -0) 
 At (1.075 , 0.725 , 0.05 )  Deviation = 0.0304468 Body force = (-0.297314 , -9.76201 , -0) 
 At (1.125 , 0.725 , 0.05 )  Deviation = 0.0263124 Body force = (-0.22233 , -8.44767 , -0) 
 At (1.175 , 0.725 , 0.05 )  Deviation = 0.0227395 Body force = (-0.166234 , -7.3091 , -0) 
 At (1.225 , 0.725 , 0.05 )  Deviation = 0.0196516 Body force = (-0.124274 , -6.32303 , -0) 
 At (1.275 , 0.725 , 0.05 )  Deviation = 0.0169833 Body force = (-0.0928958 , -5.46932 , -0) 
 At (1.325 , 0.725 , 0.05 )  Deviation = 0.0146773 Body force = (-0.069434 , -4.73036 , -0) 
 At (1.375 , 0.725 , 0.05 )  Deviation = 0.0126843 Body force = (-0.0518918 , -4.0908 , -0) 
 At (1.425 , 0.725 , 0.05 )  Deviation = 0.0109619 Body force = (-0.0387781 , -3.53739 , -0) 
 At (1.475 , 0.725 , 0.05 )  Deviation = 0.00947324 Body force = (-0.0289751 , -3.05853 , -0) 
 At (1.525 , 0.725 , 0.05 )  Deviation = 10 Body force = (0 , 0 , 0) 
 At (1.575 , 0.725 , 0.05 )  Deviation = -1.56132 Body force = (0 , 0 , 0) 
 At (1.625 , 0.725 , 0.05 )  Deviation = 0 Body force = (0 , 0 , 0) 
 At (1.675 , 0.725 , 0.05 )  Deviation = 10 Body force = (0 , 0 , 0) 
 At (1.725 , 0.725 , 0.05 )  Deviation = -1.58866 Body force = (0 , 0 , 0) 
 At (1.775 , 0.725 , 0.05 )  Deviation = 0 Body force = (0 , 0 , 0) 
 At (1.825 , 0.725 , 0.05 )  Deviation = 10 Body force = (0 , 0 , 0) 
 At (1.875 , 0.725 , 0.05 )  Deviation = -1.61231 Body force = (0 , 0 , 0) 
 At (1.925 , 0.725 , 0.05 )  Deviation = 0 Body force = (0 , 0 , 0) 
 At (1.975 , 0.725 , 0.05 )  Deviation = 10 Body force = (0 , 0 , 0) 
 At (0.025 , 0.775 , 0.05 )  Deviation = -1.63277 Body force = (0 , 0 , 0) 
 At (0.075 , 0.775 , 0.05 )  Deviation = 0 Body force = (0 , 0 , 0) 
 At (0.125 , 0.775 , 0.05 )  Deviation = 10 Body force = (0 , 0 , 0) 
 At (0.175 , 0.775 , 0.05 )  Deviation = -1.65046 Body force = (0 , 0 , 0) 
 At (0.225 , 0.775 , 0.05 )  Deviation = 0 Body force = (0 , 0 , 0) 
 At (0.275 , 0.775 , 0.05 )  Deviation = 9.99998 Body force = (0 , 0 , 0) 
 At (0.325 , 0.775 , 0.05 )  Deviation = -1.66575 Body force = (0 , 0 , 0) 
 At (0.375 , 0.775 , 0.05 )  Deviation = 0 Body force = (0 , 0 , 0) 
 At (0.425 , 0.775 , 0.05 )  Deviation = 10 Body force = (0 , 0 , 0) 
 At (0.475 , 0.775 , 0.05 )  Deviation = -1.66575 Body force = (0 , 0 , 0) 
 At (0.525 , 0.775 , 0.05 )  Deviation = 0.151076 Body force = (-7.13896 , -46.894 , -0) 
 At (0.575 , 0.775 , 0.05 )  Deviation = 0.130716 Body force = (-5.36058 , -40.7756 , -0) 
 At (0.625 , 0.775 , 0.05 )  Deviation = 0.113063 Body force = (-4.02312 , -35.4311 , -0) 
 At (0.675 , 0.775 , 0.05 )  Deviation = 0.0977628 Body force = (-3.01598 , -30.7516 , -0) 
 At (0.725 , 0.775 , 0.05 )  Deviation = 0.0845155 Body force = (-2.25968 , -26.6732 , -0) 
 At (0.775 , 0.775 , 0.05 )  Deviation = 0.0730561 Body force = (-1.69262 , -23.1275 , -0) 
 At (0.825 , 0.775 , 0.05 )  Deviation = 0.0631463 Body force = (-1.26754 , -20.0464 , -0) 
 At (0.875 , 0.775 , 0.05 )  Deviation = 0.0545775 Body force = (-0.948926 , -17.3695 , -0) 
 At (0.925 , 0.775 , 0.05 )  Deviation = 0.0471695 Body force = (-0.710202 , -15.0452 , -0) 
 At (0.975 , 0.775 , 0.05 )  Deviation = 0.0407658 Body force = (-0.531397 , -13.0281 , -0) 
 At (1.025 , 0.775 , 0.05 )  Deviation = 0.0352307 Body force = (-0.39752 , -11.2787 , -0) 
 At (1.075 , 0.775 , 0.05 )  Deviation = 0.0304468 Body force = (-0.297314 , -9.76201 , -0) 
 At (1.125 , 0.775 , 0.05 )  Deviation = 0.0263124 Body force = (-0.22233 , -8.44767 , -0) 
 At (1.175 , 0.775 , 0.05 )  Deviation = 0.0227395 Body force = (-0.166234 , -7.3091 , -0) 
 At (1.225 , 0.775 , 0.05 )  Deviation = 0.0196516 Body force = (-0.124274 , -6.32303 , -0) 
 At (1.275 , 0.775 , 0.05 )  Deviation = 0.0169833 Body force = (-0.0928958 , -5.46932 , -0) 
 At (1.325 , 0.775 , 0.05 )  Deviation = 0.0146773 Body force = (-0.069434 , -4.73036 , -0) 
 At (1.375 , 0.775 , 0.05 )  Deviation = 0.0126843 Body force = (-0.0518918 , -4.0908 , -0) 
 At (1.425 , 0.775 , 0.05 )  Deviation = 0.0109619 Body force = (-0.0387781 , -3.53739 , -0) 
 At (1.475 , 0.775 , 0.05 )  Deviation = 0.00947324 Body force = (-0.0289751 , -3.05853 , -0) 
 At (1.525 , 0.775 , 0.05 )  Deviation = -1.66575 Body force = (0 , 0 , 0) 
 At (1.575 , 0.775 , 0.05 )  Deviation = 0 Body force = (0 , 0 , 0) 
 At (1.625 , 0.775 , 0.05 )  Deviation = 10 Body force = (0 , 0 , 0) 
 At (1.675 , 0.775 , 0.05 )  Deviation = -1.66575 Body force = (0 , 0 , 0) 
 At (1.725 , 0.775 , 0.05 )  Deviation = 0 Body force = (0 , 0 , 0) 
 At (1.775 , 0.775 , 0.05 )  Deviation = 10 Body force = (0 , 0 , 0) 
 At (1.825 , 0.775 , 0.05 )  Deviation = -1.66575 Body force = (0 , 0 , 0) 
 At (1.875 , 0.775 , 0.05 )  Deviation = 0 Body force = (0 , 0 , 0) 
 At (1.925 , 0.775 , 0.05 )  Deviation = 10 Body force = (0 , 0 , 0) 
 At (1.975 , 0.775 , 0.05 )  Deviation = 1.67461e-10 Body force = (0 , 0 , 0) 
 At (0.025 , 0.825 , 0.05 )  Deviation = 0 Body force = (0 , 0 , 0) 
 At (0.075 , 0.825 , 0.05 )  Deviation = 10 Body force = (0 , 0 , 0) 
 At (0.125 , 0.825 , 0.05 )  Deviation = 3.48873e-10 Body force = (0 , 0 , 0) 
 At (0.175 , 0.825 , 0.05 )  Deviation = 0 Body force = (0 , 0 , 0) 
 At (0.225 , 0.825 , 0.05 )  Deviation = 10 Body force = (0 , 0 , 0) 
 At (0.275 , 0.825 , 0.05 )  Deviation = 4.78682e-10 Body force = (0 , 0 , 0) 
 At (0.325 , 0.825 , 0.05 )  Deviation = 0 Body force = (0 , 0 , 0) 
 At (0.375 , 0.825 , 0.05 )  Deviation = 10 Body force = (0 , 0 , 0) 
 At (0.425 , 0.825 , 0.05 )  Deviation = 5.51508e-10 Body force = (0 , 0 , 0) 
 At (0.475 , 0.825 , 0.05 )  Deviation = 0 Body force = (0 , 0 , 0) 
 At (0.525 , 0.825 , 0.05 )  Deviation = 0.151076 Body force = (-7.13896 , -46.894 , -0) 
 At (0.575 , 0.825 , 0.05 )  Deviation = 0.130716 Body force = (-5.36058 , -40.7756 , -0) 
 At (0.625 , 0.825 , 0.05 )  Deviation = 0.113063 Body force = (-4.02312 , -35.4311 , -0) 
 At (0.675 , 0.825 , 0.05 )  Deviation = 0.0977628 Body force = (-3.01598 , -30.7516 , -0) 
 At (0.725 , 0.825 , 0.05 )  Deviation = 0.0845155 Body force = (-2.25968 , -26.6732 , -0) 
 At (0.775 , 0.825 , 0.05 )  Deviation = 0.0730561 Body force = (-1.69262 , -23.1275 , -0) 
 At (0.825 , 0.825 , 0.05 )  Deviation = 0.0631463 Body force = (-1.26754 , -20.0464 , -0) 
 At (0.875 , 0.825 , 0.05 )  Deviation = 0.0545775 Body force = (-0.948926 , -17.3695 , -0) 
 At (0.925 , 0.825 , 0.05 )  Deviation = 0.0471695 Body force = (-0.710202 , -15.0452 , -0) 
 At (0.975 , 0.825 , 0.05 )  Deviation = 0.0407658 Body force = (-0.531397 , -13.0281 , -0) 
 At (1.025 , 0.825 , 0.05 )  Deviation = 0.0352307 Body force = (-0.39752 , -11.2787 , -0) 
 At (1.075 , 0.825 , 0.05 )  Deviation = 0.0304468 Body force = (-0.297314 , -9.76201 , -0) 
 At (1.125 , 0.825 , 0.05 )  Deviation = 0.0263124 Body force = (-0.22233 , -8.44767 , -0) 
 At (1.175 , 0.825 , 0.05 )  Deviation = 0.0227395 Body force = (-0.166234 , -7.3091 , -0) 
 At (1.225 , 0.825 , 0.05 )  Deviation = 0.0196516 Body force = (-0.124274 , -6.32303 , -0) 
 At (1.275 , 0.825 , 0.05 )  Deviation = 0.0169833 Body force = (-0.0928958 , -5.46932 , -0) 
 At (1.325 , 0.825 , 0.05 )  Deviation = 0.0146773 Body force = (-0.069434 , -4.73036 , -0) 
 At (1.375 , 0.825 , 0.05 )  Deviation = 0.0126843 Body force = (-0.0518918 , -4.0908 , -0) 
 At (1.425 , 0.825 , 0.05 )  Deviation = 0.0109619 Body force = (-0.0387781 , -3.53739 , -0) 
 At (1.475 , 0.825 , 0.05 )  Deviation = 0.00947324 Body force = (-0.0289751 , -3.05853 , -0) 
 At (1.525 , 0.825 , 0.05 )  Deviation = 0 Body force = (0 , 0 , 0) 
 At (1.575 , 0.825 , 0.05 )  Deviation = 9.99781 Body force = (0 , 0 , 0) 
 At (1.625 , 0.825 , 0.05 )  Deviation = -0.438356 Body force = (0 , 0 , 0) 
 At (1.675 , 0.825 , 0.05 )  Deviation = 0 Body force = (0 , 0 , 0) 
 At (1.725 , 0.825 , 0.05 )  Deviation = 10.0006 Body force = (0 , 0 , 0) 
 At (1.775 , 0.825 , 0.05 )  Deviation = -0.61551 Body force = (0 , 0 , 0) 
 At (1.825 , 0.825 , 0.05 )  Deviation = 0 Body force = (0 , 0 , 0) 
 At (1.875 , 0.825 , 0.05 )  Deviation = 10.0007 Body force = (0 , 0 , 0) 
 At (1.925 , 0.825 , 0.05 )  Deviation = -0.769268 Body force = (0 , 0 , 0) 
 At (1.975 , 0.825 , 0.05 )  Deviation = 0 Body force = (0 , 0 , 0) 
 At (0.025 , 0.875 , 0.05 )  Deviation = 10.0002 Body force = (0 , 0 , 0) 
 At (0.075 , 0.875 , 0.05 )  Deviation = -0.902633 Body force = (0 , 0 , 0) 
 At (0.125 , 0.875 , 0.05 )  Deviation = 0 Body force = (0 , 0 , 0) 
 At (0.175 , 0.875 , 0.05 )  Deviation = 10 Body force = (0 , 0 , 0) 
 At (0.225 , 0.875 , 0.05 )  Deviation = -1.01827 Body force = (0 , 0 , 0) 
 At (0.275 , 0.875 , 0.05 )  Deviation = 0 Body force = (0 , 0 , 0) 
 At (0.325 , 0.875 , 0.05 )  Deviation = 10.0001 Body force = (0 , 0 , 0) 
 At (0.375 , 0.875 , 0.05 )  Deviation = -1.1185 Body force = (0 , 0 , 0) 
 At (0.425 , 0.875 , 0.05 )  Deviation = 0 Body force = (0 , 0 , 0) 
 At (0.475 , 0.875 , 0.05 )  Deviation = 10.0001 Body force = (0 , 0 , 0) 
 At (0.525 , 0.875 , 0.05 )  Deviation = 0.151076 Body force = (-7.13896 , -46.894 , -0) 
 At (0.575 , 0.875 , 0.05 )  Deviation = 0.130716 Body force = (-5.36058 , -40.7756 , -0) 
 At (0.625 , 0.875 , 0.05 )  Deviation = 0.113063 Body force = (-4.02312 , -35.4311 , -0) 
 At (0.675 , 0.875 , 0.05 )  Deviation = 0.0977628 Body force = (-3.01598 , -30.7516 , -0) 
 At (0.725 , 0.875 , 0.05 )  Deviation = 0.0845155 Body force = (-2.25968 , -26.6732 , -0) 
 At (0.775 , 0.875 , 0.05 )  Deviation = 0.0730561 Body force = (-1.69262 , -23.1275 , -0) 
 At (0.825 , 0.875 , 0.05 )  Deviation = 0.0631463 Body force = (-1.26754 , -20.0464 , -0) 
 At (0.875 , 0.875 , 0.05 )  Deviation = 0.0545775 Body force = (-0.948926 , -17.3695 , -0) 
 At (0.925 , 0.875 , 0.05 )  Deviation = 0.0471695 Body force = (-0.710202 , -15.0452 , -0) 
 At (0.975 , 0.875 , 0.05 )  Deviation = 0.0407658 Body force = (-0.531397 , -13.0281 , -0) 
 At (1.025 , 0.875 , 0.05 )  Deviation = 0.0352307 Body force = (-0.39752 , -11.2787 , -0) 
 At (1.075 , 0.875 , 0.05 )  Deviation = 0.0304468 Body force = (-0.297314 , -9.76201 , -0) 
 At (1.125 , 0.875 , 0.05 )  Deviation = 0.0263124 Body force = (-0.22233 , -8.44767 , -0) 
 At (1.175 , 0.875 , 0.05 )  Deviation = 0.0227395 Body force = (-0.166234 , -7.3091 , -0) 
 At (1.225 , 0.875 , 0.05 )  Deviation = 0.0196516 Body force = (-0.124274 , -6.32303 , -0) 
 At (1.275 , 0.875 , 0.05 )  Deviation = 0.0169833 Body force = (-0.0928958 , -5.46932 , -0) 
 At (1.325 , 0.875 , 0.05 )  Deviation = 0.0146773 Body force = (-0.069434 , -4.73037 , -0) 
 At (1.375 , 0.875 , 0.05 )  Deviation = 0.0126843 Body force = (-0.0518918 , -4.0908 , -0) 
 At (1.425 , 0.875 , 0.05 )  Deviation = 0.0109619 Body force = (-0.0387781 , -3.53739 , -0) 
 At (1.475 , 0.875 , 0.05 )  Deviation = 0.00947324 Body force = (-0.0289751 , -3.05853 , -0) 
 At (1.525 , 0.875 , 0.05 )  Deviation = 10 Body force = (0 , 0 , 0) 
 At (1.575 , 0.875 , 0.05 )  Deviation = -1.56132 Body force = (0 , 0 , 0) 
 At (1.625 , 0.875 , 0.05 )  Deviation = 0 Body force = (0 , 0 , 0) 
 At (1.675 , 0.875 , 0.05 )  Deviation = 10 Body force = (0 , 0 , 0) 
 At (1.725 , 0.875 , 0.05 )  Deviation = -1.58866 Body force = (0 , 0 , 0) 
 At (1.775 , 0.875 , 0.05 )  Deviation = 0 Body force = (0 , 0 , 0) 
 At (1.825 , 0.875 , 0.05 )  Deviation = 10 Body force = (0 , 0 , 0) 
 At (1.875 , 0.875 , 0.05 )  Deviation = -1.61231 Body force = (0 , 0 , 0) 
 At (1.925 , 0.875 , 0.05 )  Deviation = 0 Body force = (0 , 0 , 0) 
 At (1.975 , 0.875 , 0.05 )  Deviation = 10 Body force = (0 , 0 , 0) 
 At (0.025 , 0.925 , 0.05 )  Deviation = -1.63277 Body force = (0 , 0 , 0) 
 At (0.075 , 0.925 , 0.05 )  Deviation = 0 Body force = (0 , 0 , 0) 
 At (0.125 , 0.925 , 0.05 )  Deviation = 10 Body force = (0 , 0 , 0) 
 At (0.175 , 0.925 , 0.05 )  Deviation = -1.65046 Body force = (0 , 0 , 0) 
 At (0.225 , 0.925 , 0.05 )  Deviation = 0 Body force = (0 , 0 , 0) 
 At (0.275 , 0.925 , 0.05 )  Deviation = 9.99998 Body force = (0 , 0 , 0) 
 At (0.325 , 0.925 , 0.05 )  Deviation = -1.66575 Body force = (0 , 0 , 0) 
 At (0.375 , 0.925 , 0.05 )  Deviation = 0 Body force = (0 , 0 , 0) 
 At (0.425 , 0.925 , 0.05 )  Deviation = 10 Body force = (0 , 0 , 0) 
 At (0.475 , 0.925 , 0.05 )  Deviation = -1.66575 Body force = (0 , 0 , 0) 
 At (0.525 , 0.925 , 0.05 )  Deviation = 0.151076 Body force = (-7.13896 , -46.894 , -0) 
 At (0.575 , 0.925 , 0.05 )  Deviation = 0.130716 Body force = (-5.36058 , -40.7756 , -0) 
 At (0.625 , 0.925 , 0.05 )  Deviation = 0.113063 Body force = (-4.02312 , -35.4311 , -0) 
 At (0.675 , 0.925 , 0.05 )  Deviation = 0.0977628 Body force = (-3.01598 , -30.7516 , -0) 
 At (0.725 , 0.925 , 0.05 )  Deviation = 0.0845155 Body force = (-2.25968 , -26.6732 , -0) 
 At (0.775 , 0.925 , 0.05 )  Deviation = 0.0730561 Body force = (-1.69262 , -23.1275 , -0) 
 At (0.825 , 0.925 , 0.05 )  Deviation = 0.0631463 Body force = (-1.26754 , -20.0464 , -0) 
 At (0.875 , 0.925 , 0.05 )  Deviation = 0.0545775 Body force = (-0.948926 , -17.3695 , -0) 
 At (0.925 , 0.925 , 0.05 )  Deviation = 0.0471695 Body force = (-0.710202 , -15.0452 , -0) 
 At (0.975 , 0.925 , 0.05 )  Deviation = 0.0407658 Body force = (-0.531397 , -13.0281 , -0) 
 At (1.025 , 0.925 , 0.05 )  Deviation = 0.0352307 Body force = (-0.39752 , -11.2787 , -0) 
 At (1.075 , 0.925 , 0.05 )  Deviation = 0.0304468 Body force = (-0.297314 , -9.76201 , -0) 
 At (1.125 , 0.925 , 0.05 )  Deviation = 0.0263124 Body force = (-0.22233 , -8.44767 , -0) 
 At (1.175 , 0.925 , 0.05 )  Deviation = 0.0227395 Body force = (-0.166234 , -7.3091 , -0) 
 At (1.225 , 0.925 , 0.05 )  Deviation = 0.0196516 Body force = (-0.124274 , -6.32303 , -0) 
 At (1.275 , 0.925 , 0.05 )  Deviation = 0.0169833 Body force = (-0.0928958 , -5.46932 , -0) 
 At (1.325 , 0.925 , 0.05 )  Deviation = 0.0146773 Body force = (-0.069434 , -4.73036 , -0) 
 At (1.375 , 0.925 , 0.05 )  Deviation = 0.0126843 Body force = (-0.0518918 , -4.0908 , -0) 
 At (1.425 , 0.925 , 0.05 )  Deviation = 0.0109619 Body force = (-0.0387781 , -3.53739 , -0) 
 At (1.475 , 0.925 , 0.05 )  Deviation = 0.00947324 Body force = (-0.0289751 , -3.05853 , -0) 
 At (1.525 , 0.925 , 0.05 )  Deviation = -1.66575 Body force = (0 , 0 , 0) 
 At (1.575 , 0.925 , 0.05 )  Deviation = 0 Body force = (0 , 0 , 0) 
 At (1.625 , 0.925 , 0.05 )  Deviation = 10 Body force = (0 , 0 , 0) 
 At (1.675 , 0.925 , 0.05 )  Deviation = -1.66575 Body force = (0 , 0 , 0) 
 At (1.725 , 0.925 , 0.05 )  Deviation = 0 Body force = (0 , 0 , 0) 
 At (1.775 , 0.925 , 0.05 )  Deviation = 10 Body force = (0 , 0 , 0) 
 At (1.825 , 0.925 , 0.05 )  Deviation = -1.66575 Body force = (0 , 0 , 0) 
 At (1.875 , 0.925 , 0.05 )  Deviation = 0 Body force = (0 , 0 , 0) 
 At (1.925 , 0.925 , 0.05 )  Deviation = 10 Body force = (0 , 0 , 0) 
 At (1.975 , 0.925 , 0.05 )  Deviation = 2.42158e-10 Body force = (0 , 0 , 0) 
 At (0.025 , 0.975 , 0.05 )  Deviation = 0 Body force = (0 , 0 , 0) 
 At (0.075 , 0.975 , 0.05 )  Deviation = 10 Body force = (0 , 0 , 0) 
 At (0.125 , 0.975 , 0.05 )  Deviation = 5.08703e-10 Body force = (0 , 0 , 0) 
 At (0.175 , 0.975 , 0.05 )  Deviation = 0 Body force = (0 , 0 , 0) 
 At (0.225 , 0.975 , 0.05 )  Deviation = 10 Body force = (0 , 0 , 0) 
 At (0.275 , 0.975 , 0.05 )  Deviation = 7.03884e-10 Body force = (0 , 0 , 0) 
 At (0.325 , 0.975 , 0.05 )  Deviation = 0 Body force = (0 , 0 , 0) 
 At (0.375 , 0.975 , 0.05 )  Deviation = 10 Body force = (0 , 0 , 0) 
 At (0.425 , 0.975 , 0.05 )  Deviation = 8.17765e-10 Body force = (0 , 0 , 0) 
 At (0.475 , 0.975 , 0.05 )  Deviation = 0 Body force = (0 , 0 , 0) 
 At (0.525 , 0.975 , 0.05 )  Deviation = 0.151076 Body force = (-7.13896 , -46.894 , -0) 
 At (0.575 , 0.975 , 0.05 )  Deviation = 0.130716 Body force = (-5.36058 , -40.7756 , -0) 
 At (0.625 , 0.975 , 0.05 )  Deviation = 0.113063 Body force = (-4.02312 , -35.4311 , -0) 
 At (0.675 , 0.975 , 0.05 )  Deviation = 0.0977628 Body force = (-3.01598 , -30.7516 , -0) 
 At (0.725 , 0.975 , 0.05 )  Deviation = 0.0845155 Body force = (-2.25968 , -26.6732 , -0) 
 At (0.775 , 0.975 , 0.05 )  Deviation = 0.0730561 Body force = (-1.69262 , -23.1275 , -0) 
 At (0.825 , 0.975 , 0.05 )  Deviation = 0.0631463 Body force = (-1.26754 , -20.0464 , -0) 
 At (0.875 , 0.975 , 0.05 )  Deviation = 0.0545775 Body force = (-0.948926 , -17.3695 , -0) 
 At (0.925 , 0.975 , 0.05 )  Deviation = 0.0471695 Body force = (-0.710202 , -15.0452 , -0) 
 At (0.975 , 0.975 , 0.05 )  Deviation = 0.0407658 Body force = (-0.531397 , -13.0281 , -0) 
 At (1.025 , 0.975 , 0.05 )  Deviation = 0.0352307 Body force = (-0.39752 , -11.2787 , -0) 
 At (1.075 , 0.975 , 0.05 )  Deviation = 0.0304468 Body force = (-0.297314 , -9.76201 , -0) 
 At (1.125 , 0.975 , 0.05 )  Deviation = 0.0263124 Body force = (-0.22233 , -8.44767 , -0) 
 At (1.175 , 0.975 , 0.05 )  Deviation = 0.0227395 Body force = (-0.166234 , -7.3091 , -0) 
 At (1.225 , 0.975 , 0.05 )  Deviation = 0.0196516 Body force = (-0.124274 , -6.32302 , -0) 
 At (1.275 , 0.975 , 0.05 )  Deviation = 0.0169833 Body force = (-0.0928958 , -5.46932 , -0) 
 At (1.325 , 0.975 , 0.05 )  Deviation = 0.0146773 Body force = (-0.069434 , -4.73036 , -0) 
 At (1.375 , 0.975 , 0.05 )  Deviation = 0.0126843 Body force = (-0.0518918 , -4.0908 , -0) 
 At (1.425 , 0.975 , 0.05 )  Deviation = 0.0109619 Body force = (-0.0387781 , -3.53739 , -0) 
 At (1.475 , 0.975 , 0.05 )  Deviation = 0.00947324 Body force = (-0.0289751 , -3.05853 , -0) 
 At (1.525 , 0.975 , 0.05 )  Deviation = 0 Body force = (0 , 0 , 0) 
 At (1.575 , 0.975 , 0.05 )  Deviation = 9.99781 Body force = (0 , 0 , 0) 
 At (1.625 , 0.975 , 0.05 )  Deviation = -0.438356 Body force = (0 , 0 , 0) 
 At (1.675 , 0.975 , 0.05 )  Deviation = 0 Body force = (0 , 0 , 0) 
 At (1.725 , 0.975 , 0.05 )  Deviation = 10.0006 Body force = (0 , 0 , 0) 
 At (1.775 , 0.975 , 0.05 )  Deviation = -0.61551 Body force = (0 , 0 , 0) 
 At (1.825 , 0.975 , 0.05 )  Deviation = 0 Body force = (0 , 0 , 0) 
 At (1.875 , 0.975 , 0.05 )  Deviation = 10.0007 Body force = (0 , 0 , 0) 
 At (1.925 , 0.975 , 0.05 )  Deviation = -0.769268 Body force = (0 , 0 , 0) 
 At (1.975 , 0.975 , 0.05 )  Deviation = 0 Body force = (0 , 0 , 0) 
**codeSetValue**
smoothSolver:  Solving for Ux, Initial residual = 0.00319515, Final residual = 6.34281e-05, No Iterations 2
smoothSolver:  Solving for Uy, Initial residual = 6.94636e-07, Final residual = 1.20135e-08, No Iterations 2
**codeCorrect**
GAMG:  Solving for p, Initial residual = 7.46779e-05, Final residual = 4.49161e-06, No Iterations 2
time step continuity errors : sum local = 4.63791e-07, global = 7.53134e-09, cumulative = -3.32073e-07
**codeCorrect**
ExecutionTime = 2.52 s  ClockTime = 3 s

Time = 81

**codeSetValue**
smoothSolver:  Solving for Ux, Initial residual = 0.00158642, Final residual = 4.67449e-05, No Iterations 2
smoothSolver:  Solving for Uy, Initial residual = 3.78303e-07, Final residual = 9.69371e-09, No Iterations 2
**codeCorrect**
GAMG:  Solving for p, Initial residual = 0.000260912, Final residual = 1.85524e-05, No Iterations 2
time step continuity errors : sum local = 1.91537e-06, global = 3.33931e-08, cumulative = -2.9868e-07
**codeCorrect**
ExecutionTime = 2.52 s  ClockTime = 3 s

Time = 82

**codeSetValue**
smoothSolver:  Solving for Ux, Initial residual = 0.000291759, Final residual = 8.49097e-06, No Iterations 2
smoothSolver:  Solving for Uy, Initial residual = 3.07939e-07, Final residual = 1.07537e-08, No Iterations 2
**codeCorrect**
GAMG:  Solving for p, Initial residual = 0.00021226, Final residual = 9.80383e-06, No Iterations 2
time step continuity errors : sum local = 1.01165e-06, global = 5.10816e-08, cumulative = -2.47598e-07
**codeCorrect**
ExecutionTime = 2.52 s  ClockTime = 3 s

Time = 83

**codeSetValue**
smoothSolver:  Solving for Ux, Initial residual = 0.00103018, Final residual = 4.36852e-05, No Iterations 2
smoothSolver:  Solving for Uy, Initial residual = 1.41137e-07, Final residual = 5.55455e-09, No Iterations 2
**codeCorrect**
GAMG:  Solving for p, Initial residual = 0.000146844, Final residual = 5.34068e-06, No Iterations 2
time step continuity errors : sum local = 5.50936e-07, global = -8.46712e-09, cumulative = -2.56065e-07
**codeCorrect**
ExecutionTime = 2.53 s  ClockTime = 3 s

Time = 84

**codeSetValue**
smoothSolver:  Solving for Ux, Initial residual = 0.000757768, Final residual = 2.7182e-05, No Iterations 2
smoothSolver:  Solving for Uy, Initial residual = 1.31996e-07, Final residual = 3.967e-09, No Iterations 2
**codeCorrect**
GAMG:  Solving for p, Initial residual = 0.000146818, Final residual = 1.06212e-05, No Iterations 2
time step continuity errors : sum local = 1.09587e-06, global = -2.87895e-08, cumulative = -2.84855e-07
**codeCorrect**
ExecutionTime = 2.53 s  ClockTime = 3 s

Time = 85

**codeSetValue**
smoothSolver:  Solving for Ux, Initial residual = 0.000346612, Final residual = 1.06961e-05, No Iterations 2
smoothSolver:  Solving for Uy, Initial residual = 1.35479e-07, Final residual = 4.98444e-09, No Iterations 2
**codeCorrect**
GAMG:  Solving for p, Initial residual = 0.000126911, Final residual = 5.08183e-06, No Iterations 2
time step continuity errors : sum local = 5.24516e-07, global = -2.35863e-08, cumulative = -3.08441e-07
**codeCorrect**
ExecutionTime = 2.53 s  ClockTime = 3 s

Time = 86

**codeSetValue**
smoothSolver:  Solving for Ux, Initial residual = 0.000635321, Final residual = 2.90989e-05, No Iterations 2
smoothSolver:  Solving for Uy, Initial residual = 7.17767e-08, Final residual = 2.20922e-09, No Iterations 2
**codeCorrect**
GAMG:  Solving for p, Initial residual = 0.00010149, Final residual = 4.33906e-06, No Iterations 2
time step continuity errors : sum local = 4.47935e-07, global = -6.00146e-09, cumulative = -3.14443e-07
**codeCorrect**
ExecutionTime = 2.55 s  ClockTime = 3 s

Time = 87

**codeSetValue**
smoothSolver:  Solving for Ux, Initial residual = 0.000473547, Final residual = 1.70518e-05, No Iterations 2
smoothSolver:  Solving for Uy, Initial residual = 6.90709e-08, Final residual = 2.46481e-09, No Iterations 2
**codeCorrect**
GAMG:  Solving for p, Initial residual = 0.00010196, Final residual = 7.30282e-06, No Iterations 2
time step continuity errors : sum local = 7.53804e-07, global = 3.2654e-08, cumulative = -2.81789e-07
**codeCorrect**
ExecutionTime = 2.55 s  ClockTime = 3 s

Time = 88

**codeSetValue**
smoothSolver:  Solving for Ux, Initial residual = 0.000286448, Final residual = 9.11766e-06, No Iterations 2
smoothSolver:  Solving for Uy, Initial residual = 7.20128e-08, Final residual = 2.6799e-09, No Iterations 2
**codeCorrect**
GAMG:  Solving for p, Initial residual = 9.02249e-05, Final residual = 3.54272e-06, No Iterations 2
time step continuity errors : sum local = 3.65599e-07, global = 3.94577e-09, cumulative = -2.77843e-07
**codeCorrect**
ExecutionTime = 2.55 s  ClockTime = 3 s

Time = 89

**codeSetValue**
smoothSolver:  Solving for Ux, Initial residual = 0.000408365, Final residual = 1.78531e-05, No Iterations 2
smoothSolver:  Solving for Uy, Initial residual = 4.17076e-08, Final residual = 6.44777e-09, No Iterations 1
**codeCorrect**
GAMG:  Solving for p, Initial residual = 7.47485e-05, Final residual = 3.1177e-06, No Iterations 2
time step continuity errors : sum local = 3.21702e-07, global = -1.02408e-08, cumulative = -2.88084e-07
**codeCorrect**
ExecutionTime = 2.55 s  ClockTime = 3 s

Time = 90

 At (0.025 , 0.025 , 0.05 )  Deviation = 6.95261e-310 Body force = (0 , 0 , 0) 
 At (0.075 , 0.025 , 0.05 )  Deviation = 6.95261e-310 Body force = (0 , 0 , 0) 
 At (0.125 , 0.025 , 0.05 )  Deviation = 1.10275e-316 Body force = (0 , 0 , 0) 
 At (0.175 , 0.025 , 0.05 )  Deviation = 1.10275e-316 Body force = (0 , 0 , 0) 
 At (0.225 , 0.025 , 0.05 )  Deviation = 0 Body force = (0 , 0 , 0) 
 At (0.275 , 0.025 , 0.05 )  Deviation = 0 Body force = (0 , 0 , 0) 
 At (0.325 , 0.025 , 0.05 )  Deviation = 0 Body force = (0 , 0 , 0) 
 At (0.375 , 0.025 , 0.05 )  Deviation = 0 Body force = (0 , 0 , 0) 
 At (0.425 , 0.025 , 0.05 )  Deviation = 0 Body force = (0 , 0 , 0) 
 At (0.475 , 0.025 , 0.05 )  Deviation = 0 Body force = (0 , 0 , 0) 
 At (0.525 , 0.025 , 0.05 )  Deviation = 0.151076 Body force = (-7.13897 , -46.8941 , -0) 
 At (0.575 , 0.025 , 0.05 )  Deviation = 0.130716 Body force = (-5.36059 , -40.7757 , -0) 
 At (0.625 , 0.025 , 0.05 )  Deviation = 0.113063 Body force = (-4.02312 , -35.4312 , -0) 
 At (0.675 , 0.025 , 0.05 )  Deviation = 0.0977627 Body force = (-3.01598 , -30.7517 , -0) 
 At (0.725 , 0.025 , 0.05 )  Deviation = 0.0845155 Body force = (-2.25969 , -26.6733 , -0) 
 At (0.775 , 0.025 , 0.05 )  Deviation = 0.073056 Body force = (-1.69262 , -23.1276 , -0) 
 At (0.825 , 0.025 , 0.05 )  Deviation = 0.0631462 Body force = (-1.26754 , -20.0464 , -0) 
 At (0.875 , 0.025 , 0.05 )  Deviation = 0.0545775 Body force = (-0.948923 , -17.3694 , -0) 
 At (0.925 , 0.025 , 0.05 )  Deviation = 0.0471693 Body force = (-0.710193 , -15.0451 , -0) 
 At (0.975 , 0.025 , 0.05 )  Deviation = 0.0407656 Body force = (-0.53139 , -13.0281 , -0) 
 At (1.025 , 0.025 , 0.05 )  Deviation = 0.0352306 Body force = (-0.397518 , -11.2787 , -0) 
 At (1.075 , 0.025 , 0.05 )  Deviation = 0.0304469 Body force = (-0.297315 , -9.76203 , -0) 
 At (1.125 , 0.025 , 0.05 )  Deviation = 0.0263125 Body force = (-0.222332 , -8.44772 , -0) 
 At (1.175 , 0.025 , 0.05 )  Deviation = 0.0227396 Body force = (-0.166235 , -7.30913 , -0) 
 At (1.225 , 0.025 , 0.05 )  Deviation = 0.0196518 Body force = (-0.124275 , -6.32307 , -0) 
 At (1.275 , 0.025 , 0.05 )  Deviation = 0.0169833 Body force = (-0.0928962 , -5.46933 , -0) 
 At (1.325 , 0.025 , 0.05 )  Deviation = 0.0146772 Body force = (-0.0694331 , -4.73034 , -0) 
 At (1.375 , 0.025 , 0.05 )  Deviation = 0.0126843 Body force = (-0.0518915 , -4.09079 , -0) 
 At (1.425 , 0.025 , 0.05 )  Deviation = 0.010962 Body force = (-0.0387788 , -3.53742 , -0) 
 At (1.475 , 0.025 , 0.05 )  Deviation = 0.00947337 Body force = (-0.0289759 , -3.05858 , -0) 
 At (1.525 , 0.025 , 0.05 )  Deviation = 0 Body force = (0 , 0 , 0) 
 At (1.575 , 0.025 , 0.05 )  Deviation = 0 Body force = (0 , 0 , 0) 
 At (1.625 , 0.025 , 0.05 )  Deviation = 0 Body force = (0 , 0 , 0) 
 At (1.675 , 0.025 , 0.05 )  Deviation = 0 Body force = (0 , 0 , 0) 
 At (1.725 , 0.025 , 0.05 )  Deviation = 0 Body force = (0 , 0 , 0) 
 At (1.775 , 0.025 , 0.05 )  Deviation = 0 Body force = (0 , 0 , 0) 
 At (1.825 , 0.025 , 0.05 )  Deviation = 0 Body force = (0 , 0 , 0) 
 At (1.875 , 0.025 , 0.05 )  Deviation = 0 Body force = (0 , 0 , 0) 
 At (1.925 , 0.025 , 0.05 )  Deviation = 0 Body force = (0 , 0 , 0) 
 At (1.975 , 0.025 , 0.05 )  Deviation = 0 Body force = (0 , 0 , 0) 
 At (0.025 , 0.075 , 0.05 )  Deviation = 0 Body force = (0 , 0 , 0) 
 At (0.075 , 0.075 , 0.05 )  Deviation = 0 Body force = (0 , 0 , 0) 
 At (0.125 , 0.075 , 0.05 )  Deviation = 0 Body force = (0 , 0 , 0) 
 At (0.175 , 0.075 , 0.05 )  Deviation = 0 Body force = (0 , 0 , 0) 
 At (0.225 , 0.075 , 0.05 )  Deviation = 0 Body force = (0 , 0 , 0) 
 At (0.275 , 0.075 , 0.05 )  Deviation = 0 Body force = (0 , 0 , 0) 
 At (0.325 , 0.075 , 0.05 )  Deviation = 0 Body force = (0 , 0 , 0) 
 At (0.375 , 0.075 , 0.05 )  Deviation = 0 Body force = (0 , 0 , 0) 
 At (0.425 , 0.075 , 0.05 )  Deviation = 0 Body force = (0 , 0 , 0) 
 At (0.475 , 0.075 , 0.05 )  Deviation = 0 Body force = (0 , 0 , 0) 
 At (0.525 , 0.075 , 0.05 )  Deviation = 0.151076 Body force = (-7.13897 , -46.8941 , -0) 
 At (0.575 , 0.075 , 0.05 )  Deviation = 0.130716 Body force = (-5.36059 , -40.7757 , -0) 
 At (0.625 , 0.075 , 0.05 )  Deviation = 0.113063 Body force = (-4.02312 , -35.4312 , -0) 
 At (0.675 , 0.075 , 0.05 )  Deviation = 0.0977627 Body force = (-3.01598 , -30.7517 , -0) 
 At (0.725 , 0.075 , 0.05 )  Deviation = 0.0845155 Body force = (-2.25969 , -26.6733 , -0) 
 At (0.775 , 0.075 , 0.05 )  Deviation = 0.073056 Body force = (-1.69262 , -23.1276 , -0) 
 At (0.825 , 0.075 , 0.05 )  Deviation = 0.0631462 Body force = (-1.26754 , -20.0464 , -0) 
 At (0.875 , 0.075 , 0.05 )  Deviation = 0.0545775 Body force = (-0.948923 , -17.3694 , -0) 
 At (0.925 , 0.075 , 0.05 )  Deviation = 0.0471693 Body force = (-0.710193 , -15.0451 , -0) 
 At (0.975 , 0.075 , 0.05 )  Deviation = 0.0407656 Body force = (-0.53139 , -13.0281 , -0) 
 At (1.025 , 0.075 , 0.05 )  Deviation = 0.0352306 Body force = (-0.397518 , -11.2787 , -0) 
 At (1.075 , 0.075 , 0.05 )  Deviation = 0.0304469 Body force = (-0.297315 , -9.76203 , -0) 
 At (1.125 , 0.075 , 0.05 )  Deviation = 0.0263125 Body force = (-0.222332 , -8.44772 , -0) 
 At (1.175 , 0.075 , 0.05 )  Deviation = 0.0227396 Body force = (-0.166235 , -7.30913 , -0) 
 At (1.225 , 0.075 , 0.05 )  Deviation = 0.0196518 Body force = (-0.124275 , -6.32307 , -0) 
 At (1.275 , 0.075 , 0.05 )  Deviation = 0.0169833 Body force = (-0.0928962 , -5.46933 , -0) 
 At (1.325 , 0.075 , 0.05 )  Deviation = 0.0146772 Body force = (-0.0694331 , -4.73034 , -0) 
 At (1.375 , 0.075 , 0.05 )  Deviation = 0.0126843 Body force = (-0.0518915 , -4.09079 , -0) 
 At (1.425 , 0.075 , 0.05 )  Deviation = 0.010962 Body force = (-0.0387788 , -3.53742 , -0) 
 At (1.475 , 0.075 , 0.05 )  Deviation = 0.00947337 Body force = (-0.0289759 , -3.05858 , -0) 
 At (1.525 , 0.075 , 0.05 )  Deviation = 0 Body force = (0 , 0 , 0) 
 At (1.575 , 0.075 , 0.05 )  Deviation = 0 Body force = (0 , 0 , 0) 
 At (1.625 , 0.075 , 0.05 )  Deviation = 0 Body force = (0 , 0 , 0) 
 At (1.675 , 0.075 , 0.05 )  Deviation = 0 Body force = (0 , 0 , 0) 
 At (1.725 , 0.075 , 0.05 )  Deviation = 0 Body force = (0 , 0 , 0) 
[...]
 At (0.775 , 0.725 , 0.05 )  Deviation = 0.0730561 Body force = (-1.69262 , -23.1276 , -0) 
 At (0.825 , 0.725 , 0.05 )  Deviation = 0.0631463 Body force = (-1.26754 , -20.0464 , -0) 
 At (0.875 , 0.725 , 0.05 )  Deviation = 0.0545775 Body force = (-0.948923 , -17.3695 , -0) 
 At (0.925 , 0.725 , 0.05 )  Deviation = 0.0471693 Body force = (-0.710193 , -15.0451 , -0) 
 At (0.975 , 0.725 , 0.05 )  Deviation = 0.0407656 Body force = (-0.531391 , -13.0281 , -0) 
 At (1.025 , 0.725 , 0.05 )  Deviation = 0.0352306 Body force = (-0.397519 , -11.2787 , -0) 
 At (1.075 , 0.725 , 0.05 )  Deviation = 0.0304469 Body force = (-0.297316 , -9.76205 , -0) 
 At (1.125 , 0.725 , 0.05 )  Deviation = 0.0263126 Body force = (-0.222333 , -8.44774 , -0) 
 At (1.175 , 0.725 , 0.05 )  Deviation = 0.0227396 Body force = (-0.166236 , -7.30915 , -0) 
 At (1.225 , 0.725 , 0.05 )  Deviation = 0.0196518 Body force = (-0.124276 , -6.32309 , -0) 
 At (1.275 , 0.725 , 0.05 )  Deviation = 0.0169833 Body force = (-0.0928966 , -5.46935 , -0) 
 At (1.325 , 0.725 , 0.05 )  Deviation = 0.0146772 Body force = (-0.0694333 , -4.73035 , -0) 
 At (1.375 , 0.725 , 0.05 )  Deviation = 0.0126843 Body force = (-0.0518916 , -4.0908 , -0) 
 At (1.425 , 0.725 , 0.05 )  Deviation = 0.010962 Body force = (-0.0387789 , -3.53742 , -0) 
 At (1.475 , 0.725 , 0.05 )  Deviation = 0.00947338 Body force = (-0.028976 , -3.05858 , -0) 
 At (1.525 , 0.725 , 0.05 )  Deviation = -3.9329e-08 Body force = (0 , 0 , 0) 
 At (1.575 , 0.725 , 0.05 )  Deviation = -1.30825e-08 Body force = (0 , 0 , 0) 
 At (1.625 , 0.725 , 0.05 )  Deviation = 1.35175e-09 Body force = (0 , 0 , 0) 
 At (1.675 , 0.725 , 0.05 )  Deviation = 1.29158e-09 Body force = (0 , 0 , 0) 
 At (1.725 , 0.725 , 0.05 )  Deviation = -7.33143e-11 Body force = (0 , 0 , 0) 
 At (1.775 , 0.725 , 0.05 )  Deviation = 3.42241e-10 Body force = (0 , 0 , 0) 
 At (1.825 , 0.725 , 0.05 )  Deviation = 1.04634e-09 Body force = (0 , 0 , 0) 
 At (1.875 , 0.725 , 0.05 )  Deviation = 6.36168e-10 Body force = (0 , 0 , 0) 
 At (1.925 , 0.725 , 0.05 )  Deviation = -2.95957e-12 Body force = (0 , 0 , 0) 
 At (1.975 , 0.725 , 0.05 )  Deviation = -6.13542e-12 Body force = (0 , 0 , 0) 
 At (0.025 , 0.775 , 0.05 )  Deviation = -8.39779e-12 Body force = (0 , 0 , 0) 
 At (0.075 , 0.775 , 0.05 )  Deviation = -1.67372e-11 Body force = (0 , 0 , 0) 
 At (0.125 , 0.775 , 0.05 )  Deviation = 9.64941e-11 Body force = (0 , 0 , 0) 
 At (0.175 , 0.775 , 0.05 )  Deviation = -1.46312e-09 Body force = (0 , 0 , 0) 
 At (0.225 , 0.775 , 0.05 )  Deviation = 2.02512e-08 Body force = (0 , 0 , 0) 
 At (0.275 , 0.775 , 0.05 )  Deviation = -2.82439e-07 Body force = (0 , 0 , 0) 
 At (0.325 , 0.775 , 0.05 )  Deviation = 3.94197e-06 Body force = (0 , 0 , 0) 
 At (0.375 , 0.775 , 0.05 )  Deviation = -5.43629e-05 Body force = (0 , 0 , 0) 
 At (0.425 , 0.775 , 0.05 )  Deviation = -6.01694e-05 Body force = (0 , 0 , 0) 
 At (0.475 , 0.775 , 0.05 )  Deviation = 1.84211e-05 Body force = (0 , 0 , 0) 
 At (0.525 , 0.775 , 0.05 )  Deviation = 0.151076 Body force = (-7.13897 , -46.8941 , -0) 
 At (0.575 , 0.775 , 0.05 )  Deviation = 0.130716 Body force = (-5.36059 , -40.7757 , -0) 
 At (0.625 , 0.775 , 0.05 )  Deviation = 0.113063 Body force = (-4.02312 , -35.4312 , -0) 
 At (0.675 , 0.775 , 0.05 )  Deviation = 0.0977627 Body force = (-3.01598 , -30.7516 , -0) 
 At (0.725 , 0.775 , 0.05 )  Deviation = 0.0845155 Body force = (-2.25969 , -26.6733 , -0) 
 At (0.775 , 0.775 , 0.05 )  Deviation = 0.0730561 Body force = (-1.69262 , -23.1276 , -0) 
 At (0.825 , 0.775 , 0.05 )  Deviation = 0.0631463 Body force = (-1.26754 , -20.0464 , -0) 
 At (0.875 , 0.775 , 0.05 )  Deviation = 0.0545775 Body force = (-0.948923 , -17.3695 , -0) 
 At (0.925 , 0.775 , 0.05 )  Deviation = 0.0471693 Body force = (-0.710193 , -15.0451 , -0) 
 At (0.975 , 0.775 , 0.05 )  Deviation = 0.0407656 Body force = (-0.531391 , -13.0281 , -0) 
 At (1.025 , 0.775 , 0.05 )  Deviation = 0.0352306 Body force = (-0.397519 , -11.2787 , -0) 
 At (1.075 , 0.775 , 0.05 )  Deviation = 0.0304469 Body force = (-0.297316 , -9.76205 , -0) 
 At (1.125 , 0.775 , 0.05 )  Deviation = 0.0263126 Body force = (-0.222333 , -8.44774 , -0) 
 At (1.175 , 0.775 , 0.05 )  Deviation = 0.0227396 Body force = (-0.166236 , -7.30915 , -0) 
 At (1.225 , 0.775 , 0.05 )  Deviation = 0.0196518 Body force = (-0.124276 , -6.32309 , -0) 
 At (1.275 , 0.775 , 0.05 )  Deviation = 0.0169833 Body force = (-0.0928966 , -5.46935 , -0) 
 At (1.325 , 0.775 , 0.05 )  Deviation = 0.0146772 Body force = (-0.0694333 , -4.73035 , -0) 
 At (1.375 , 0.775 , 0.05 )  Deviation = 0.0126843 Body force = (-0.0518916 , -4.0908 , -0) 
 At (1.425 , 0.775 , 0.05 )  Deviation = 0.010962 Body force = (-0.0387789 , -3.53742 , -0) 
 At (1.475 , 0.775 , 0.05 )  Deviation = 0.00947338 Body force = (-0.028976 , -3.05858 , -0) 
 At (1.525 , 0.775 , 0.05 )  Deviation = -3.9327e-08 Body force = (0 , 0 , 0) 
 At (1.575 , 0.775 , 0.05 )  Deviation = -1.30821e-08 Body force = (0 , 0 , 0) 
 At (1.625 , 0.775 , 0.05 )  Deviation = 1.35074e-09 Body force = (0 , 0 , 0) 
 At (1.675 , 0.775 , 0.05 )  Deviation = 1.28947e-09 Body force = (0 , 0 , 0) 
 At (1.725 , 0.775 , 0.05 )  Deviation = -7.59832e-11 Body force = (0 , 0 , 0) 
 At (1.775 , 0.775 , 0.05 )  Deviation = 3.39558e-10 Body force = (0 , 0 , 0) 
 At (1.825 , 0.775 , 0.05 )  Deviation = 1.04407e-09 Body force = (0 , 0 , 0) 
 At (1.875 , 0.775 , 0.05 )  Deviation = 6.35079e-10 Body force = (0 , 0 , 0) 
 At (1.925 , 0.775 , 0.05 )  Deviation = -2.64225e-12 Body force = (0 , 0 , 0) 
 At (1.975 , 0.775 , 0.05 )  Deviation = -5.1174e-12 Body force = (0 , 0 , 0) 
 At (0.025 , 0.825 , 0.05 )  Deviation = -6.57672e-12 Body force = (0 , 0 , 0) 
 At (0.075 , 0.825 , 0.05 )  Deviation = -1.57811e-11 Body force = (0 , 0 , 0) 
 At (0.125 , 0.825 , 0.05 )  Deviation = 9.33745e-11 Body force = (0 , 0 , 0) 
 At (0.175 , 0.825 , 0.05 )  Deviation = -1.47183e-09 Body force = (0 , 0 , 0) 
 At (0.225 , 0.825 , 0.05 )  Deviation = 2.02401e-08 Body force = (0 , 0 , 0) 
 At (0.275 , 0.825 , 0.05 )  Deviation = -2.82446e-07 Body force = (0 , 0 , 0) 
 At (0.325 , 0.825 , 0.05 )  Deviation = 3.94197e-06 Body force = (0 , 0 , 0) 
 At (0.375 , 0.825 , 0.05 )  Deviation = -5.43629e-05 Body force = (0 , 0 , 0) 
 At (0.425 , 0.825 , 0.05 )  Deviation = -6.01694e-05 Body force = (0 , 0 , 0) 
 At (0.475 , 0.825 , 0.05 )  Deviation = 1.84212e-05 Body force = (0 , 0 , 0) 
 At (0.525 , 0.825 , 0.05 )  Deviation = 0.151076 Body force = (-7.13897 , -46.8941 , -0) 
 At (0.575 , 0.825 , 0.05 )  Deviation = 0.130716 Body force = (-5.36059 , -40.7757 , -0) 
 At (0.625 , 0.825 , 0.05 )  Deviation = 0.113063 Body force = (-4.02312 , -35.4312 , -0) 
 At (0.675 , 0.825 , 0.05 )  Deviation = 0.0977627 Body force = (-3.01598 , -30.7516 , -0) 
 At (0.725 , 0.825 , 0.05 )  Deviation = 0.0845155 Body force = (-2.25969 , -26.6733 , -0) 
 At (0.775 , 0.825 , 0.05 )  Deviation = 0.0730561 Body force = (-1.69262 , -23.1276 , -0) 
 At (0.825 , 0.825 , 0.05 )  Deviation = 0.0631463 Body force = (-1.26754 , -20.0464 , -0) 
 At (0.875 , 0.825 , 0.05 )  Deviation = 0.0545775 Body force = (-0.948923 , -17.3695 , -0) 
 At (0.925 , 0.825 , 0.05 )  Deviation = 0.0471693 Body force = (-0.710193 , -15.0451 , -0) 
 At (0.975 , 0.825 , 0.05 )  Deviation = 0.0407656 Body force = (-0.531391 , -13.0281 , -0) 
 At (1.025 , 0.825 , 0.05 )  Deviation = 0.0352306 Body force = (-0.397519 , -11.2787 , -0) 
 At (1.075 , 0.825 , 0.05 )  Deviation = 0.0304469 Body force = (-0.297316 , -9.76205 , -0) 
 At (1.125 , 0.825 , 0.05 )  Deviation = 0.0263126 Body force = (-0.222333 , -8.44774 , -0) 
 At (1.175 , 0.825 , 0.05 )  Deviation = 0.0227396 Body force = (-0.166236 , -7.30915 , -0) 
 At (1.225 , 0.825 , 0.05 )  Deviation = 0.0196518 Body force = (-0.124276 , -6.32309 , -0) 
 At (1.275 , 0.825 , 0.05 )  Deviation = 0.0169833 Body force = (-0.0928966 , -5.46935 , -0) 
 At (1.325 , 0.825 , 0.05 )  Deviation = 0.0146772 Body force = (-0.0694333 , -4.73035 , -0) 
 At (1.375 , 0.825 , 0.05 )  Deviation = 0.0126843 Body force = (-0.0518916 , -4.0908 , -0) 
 At (1.425 , 0.825 , 0.05 )  Deviation = 0.010962 Body force = (-0.0387789 , -3.53742 , -0) 
 At (1.475 , 0.825 , 0.05 )  Deviation = 0.00947338 Body force = (-0.028976 , -3.05858 , -0) 
 At (1.525 , 0.825 , 0.05 )  Deviation = -3.93264e-08 Body force = (0 , 0 , 0) 
 At (1.575 , 0.825 , 0.05 )  Deviation = -1.30821e-08 Body force = (0 , 0 , 0) 
 At (1.625 , 0.825 , 0.05 )  Deviation = 1.34992e-09 Body force = (0 , 0 , 0) 
 At (1.675 , 0.825 , 0.05 )  Deviation = 1.28808e-09 Body force = (0 , 0 , 0) 
 At (1.725 , 0.825 , 0.05 )  Deviation = -7.76961e-11 Body force = (0 , 0 , 0) 
 At (1.775 , 0.825 , 0.05 )  Deviation = 3.37818e-10 Body force = (0 , 0 , 0) 
 At (1.825 , 0.825 , 0.05 )  Deviation = 1.04253e-09 Body force = (0 , 0 , 0) 
 At (1.875 , 0.825 , 0.05 )  Deviation = 6.34446e-10 Body force = (0 , 0 , 0) 
 At (1.925 , 0.825 , 0.05 )  Deviation = -2.62527e-12 Body force = (0 , 0 , 0) 
 At (1.975 , 0.825 , 0.05 )  Deviation = -5.41541e-12 Body force = (0 , 0 , 0) 
 At (0.025 , 0.875 , 0.05 )  Deviation = -7.8325e-12 Body force = (0 , 0 , 0) 
 At (0.075 , 0.875 , 0.05 )  Deviation = -1.86686e-11 Body force = (0 , 0 , 0) 
 At (0.125 , 0.875 , 0.05 )  Deviation = 8.95482e-11 Body force = (0 , 0 , 0) 
 At (0.175 , 0.875 , 0.05 )  Deviation = -1.47375e-09 Body force = (0 , 0 , 0) 
 At (0.225 , 0.875 , 0.05 )  Deviation = 2.02438e-08 Body force = (0 , 0 , 0) 
 At (0.275 , 0.875 , 0.05 )  Deviation = -2.82434e-07 Body force = (0 , 0 , 0) 
 At (0.325 , 0.875 , 0.05 )  Deviation = 3.94199e-06 Body force = (0 , 0 , 0) 
 At (0.375 , 0.875 , 0.05 )  Deviation = -5.43629e-05 Body force = (0 , 0 , 0) 
 At (0.425 , 0.875 , 0.05 )  Deviation = -6.01694e-05 Body force = (0 , 0 , 0) 
 At (0.475 , 0.875 , 0.05 )  Deviation = 1.84212e-05 Body force = (0 , 0 , 0) 
 At (0.525 , 0.875 , 0.05 )  Deviation = 0.151076 Body force = (-7.13897 , -46.8941 , -0) 
 At (0.575 , 0.875 , 0.05 )  Deviation = 0.130716 Body force = (-5.36059 , -40.7757 , -0) 
 At (0.625 , 0.875 , 0.05 )  Deviation = 0.113063 Body force = (-4.02312 , -35.4312 , -0) 
 At (0.675 , 0.875 , 0.05 )  Deviation = 0.0977627 Body force = (-3.01598 , -30.7516 , -0) 
 At (0.725 , 0.875 , 0.05 )  Deviation = 0.0845155 Body force = (-2.25969 , -26.6733 , -0) 
 At (0.775 , 0.875 , 0.05 )  Deviation = 0.0730561 Body force = (-1.69262 , -23.1276 , -0) 
 At (0.825 , 0.875 , 0.05 )  Deviation = 0.0631463 Body force = (-1.26754 , -20.0464 , -0) 
 At (0.875 , 0.875 , 0.05 )  Deviation = 0.0545775 Body force = (-0.948923 , -17.3695 , -0) 
 At (0.925 , 0.875 , 0.05 )  Deviation = 0.0471693 Body force = (-0.710193 , -15.0451 , -0) 
 At (0.975 , 0.875 , 0.05 )  Deviation = 0.0407656 Body force = (-0.531391 , -13.0281 , -0) 
 At (1.025 , 0.875 , 0.05 )  Deviation = 0.0352306 Body force = (-0.397519 , -11.2787 , -0) 
 At (1.075 , 0.875 , 0.05 )  Deviation = 0.0304469 Body force = (-0.297316 , -9.76205 , -0) 
 At (1.125 , 0.875 , 0.05 )  Deviation = 0.0263126 Body force = (-0.222333 , -8.44774 , -0) 
 At (1.175 , 0.875 , 0.05 )  Deviation = 0.0227396 Body force = (-0.166236 , -7.30915 , -0) 
 At (1.225 , 0.875 , 0.05 )  Deviation = 0.0196518 Body force = (-0.124276 , -6.32309 , -0) 
 At (1.275 , 0.875 , 0.05 )  Deviation = 0.0169833 Body force = (-0.0928966 , -5.46935 , -0) 
 At (1.325 , 0.875 , 0.05 )  Deviation = 0.0146772 Body force = (-0.0694333 , -4.73035 , -0) 
 At (1.375 , 0.875 , 0.05 )  Deviation = 0.0126843 Body force = (-0.0518916 , -4.0908 , -0) 
 At (1.425 , 0.875 , 0.05 )  Deviation = 0.010962 Body force = (-0.0387789 , -3.53742 , -0) 
 At (1.475 , 0.875 , 0.05 )  Deviation = 0.00947338 Body force = (-0.028976 , -3.05858 , -0) 
 At (1.525 , 0.875 , 0.05 )  Deviation = -3.9326e-08 Body force = (0 , 0 , 0) 
 At (1.575 , 0.875 , 0.05 )  Deviation = -1.30821e-08 Body force = (0 , 0 , 0) 
 At (1.625 , 0.875 , 0.05 )  Deviation = 1.34956e-09 Body force = (0 , 0 , 0) 
 At (1.675 , 0.875 , 0.05 )  Deviation = 1.28735e-09 Body force = (0 , 0 , 0) 
 At (1.725 , 0.875 , 0.05 )  Deviation = -7.86631e-11 Body force = (0 , 0 , 0) 
 At (1.775 , 0.875 , 0.05 )  Deviation = 3.36767e-10 Body force = (0 , 0 , 0) 
 At (1.825 , 0.875 , 0.05 )  Deviation = 1.04153e-09 Body force = (0 , 0 , 0) 
 At (1.875 , 0.875 , 0.05 )  Deviation = 6.34137e-10 Body force = (0 , 0 , 0) 
 At (1.925 , 0.875 , 0.05 )  Deviation = -2.71125e-12 Body force = (0 , 0 , 0) 
 At (1.975 , 0.875 , 0.05 )  Deviation = -5.54601e-12 Body force = (0 , 0 , 0) 
 At (0.025 , 0.925 , 0.05 )  Deviation = -7.79268e-12 Body force = (0 , 0 , 0) 
 At (0.075 , 0.925 , 0.05 )  Deviation = -1.77836e-11 Body force = (0 , 0 , 0) 
 At (0.125 , 0.925 , 0.05 )  Deviation = 9.22956e-11 Body force = (0 , 0 , 0) 
 At (0.175 , 0.925 , 0.05 )  Deviation = -1.46849e-09 Body force = (0 , 0 , 0) 
 At (0.225 , 0.925 , 0.05 )  Deviation = 2.0251e-08 Body force = (0 , 0 , 0) 
 At (0.275 , 0.925 , 0.05 )  Deviation = -2.82427e-07 Body force = (0 , 0 , 0) 
 At (0.325 , 0.925 , 0.05 )  Deviation = 3.942e-06 Body force = (0 , 0 , 0) 
 At (0.375 , 0.925 , 0.05 )  Deviation = -5.43629e-05 Body force = (0 , 0 , 0) 
 At (0.425 , 0.925 , 0.05 )  Deviation = -6.01694e-05 Body force = (0 , 0 , 0) 
 At (0.475 , 0.925 , 0.05 )  Deviation = 1.84212e-05 Body force = (0 , 0 , 0) 
 At (0.525 , 0.925 , 0.05 )  Deviation = 0.151076 Body force = (-7.13897 , -46.8941 , -0) 
 At (0.575 , 0.925 , 0.05 )  Deviation = 0.130716 Body force = (-5.36059 , -40.7757 , -0) 
 At (0.625 , 0.925 , 0.05 )  Deviation = 0.113063 Body force = (-4.02312 , -35.4312 , -0) 
 At (0.675 , 0.925 , 0.05 )  Deviation = 0.0977627 Body force = (-3.01598 , -30.7516 , -0) 
 At (0.725 , 0.925 , 0.05 )  Deviation = 0.0845155 Body force = (-2.25969 , -26.6733 , -0) 
 At (0.775 , 0.925 , 0.05 )  Deviation = 0.0730561 Body force = (-1.69262 , -23.1276 , -0) 
 At (0.825 , 0.925 , 0.05 )  Deviation = 0.0631463 Body force = (-1.26754 , -20.0464 , -0) 
 At (0.875 , 0.925 , 0.05 )  Deviation = 0.0545775 Body force = (-0.948923 , -17.3695 , -0) 
 At (0.925 , 0.925 , 0.05 )  Deviation = 0.0471693 Body force = (-0.710193 , -15.0451 , -0) 
 At (0.975 , 0.925 , 0.05 )  Deviation = 0.0407656 Body force = (-0.531391 , -13.0281 , -0) 
 At (1.025 , 0.925 , 0.05 )  Deviation = 0.0352306 Body force = (-0.397519 , -11.2787 , -0) 
 At (1.075 , 0.925 , 0.05 )  Deviation = 0.0304469 Body force = (-0.297316 , -9.76205 , -0) 
 At (1.125 , 0.925 , 0.05 )  Deviation = 0.0263126 Body force = (-0.222333 , -8.44774 , -0) 
 At (1.175 , 0.925 , 0.05 )  Deviation = 0.0227396 Body force = (-0.166236 , -7.30915 , -0) 
 At (1.225 , 0.925 , 0.05 )  Deviation = 0.0196518 Body force = (-0.124276 , -6.32309 , -0) 
 At (1.275 , 0.925 , 0.05 )  Deviation = 0.0169833 Body force = (-0.0928966 , -5.46935 , -0) 
 At (1.325 , 0.925 , 0.05 )  Deviation = 0.0146772 Body force = (-0.0694333 , -4.73035 , -0) 
 At (1.375 , 0.925 , 0.05 )  Deviation = 0.0126843 Body force = (-0.0518916 , -4.0908 , -0) 
 At (1.425 , 0.925 , 0.05 )  Deviation = 0.010962 Body force = (-0.0387789 , -3.53742 , -0) 
 At (1.475 , 0.925 , 0.05 )  Deviation = 0.00947338 Body force = (-0.028976 , -3.05858 , -0) 
 At (1.525 , 0.925 , 0.05 )  Deviation = -3.93258e-08 Body force = (0 , 0 , 0) 
 At (1.575 , 0.925 , 0.05 )  Deviation = -1.3082e-08 Body force = (0 , 0 , 0) 
 At (1.625 , 0.925 , 0.05 )  Deviation = 1.34942e-09 Body force = (0 , 0 , 0) 
 At (1.675 , 0.925 , 0.05 )  Deviation = 1.28702e-09 Body force = (0 , 0 , 0) 
 At (1.725 , 0.925 , 0.05 )  Deviation = -7.91559e-11 Body force = (0 , 0 , 0) 
 At (1.775 , 0.925 , 0.05 )  Deviation = 3.36183e-10 Body force = (0 , 0 , 0) 
 At (1.825 , 0.925 , 0.05 )  Deviation = 1.04088e-09 Body force = (0 , 0 , 0) 
 At (1.875 , 0.925 , 0.05 )  Deviation = 6.3416e-10 Body force = (0 , 0 , 0) 
 At (1.925 , 0.925 , 0.05 )  Deviation = -2.67615e-12 Body force = (0 , 0 , 0) 
 At (1.975 , 0.925 , 0.05 )  Deviation = -5.37544e-12 Body force = (0 , 0 , 0) 
 At (0.025 , 0.975 , 0.05 )  Deviation = -7.34151e-12 Body force = (0 , 0 , 0) 
 At (0.075 , 0.975 , 0.05 )  Deviation = -1.69309e-11 Body force = (0 , 0 , 0) 
 At (0.125 , 0.975 , 0.05 )  Deviation = 9.34434e-11 Body force = (0 , 0 , 0) 
 At (0.175 , 0.975 , 0.05 )  Deviation = -1.4676e-09 Body force = (0 , 0 , 0) 
 At (0.225 , 0.975 , 0.05 )  Deviation = 2.02506e-08 Body force = (0 , 0 , 0) 
 At (0.275 , 0.975 , 0.05 )  Deviation = -2.8243e-07 Body force = (0 , 0 , 0) 
 At (0.325 , 0.975 , 0.05 )  Deviation = 3.94199e-06 Body force = (0 , 0 , 0) 
 At (0.375 , 0.975 , 0.05 )  Deviation = -5.43629e-05 Body force = (0 , 0 , 0) 
 At (0.425 , 0.975 , 0.05 )  Deviation = -6.01694e-05 Body force = (0 , 0 , 0) 
 At (0.475 , 0.975 , 0.05 )  Deviation = 1.84212e-05 Body force = (0 , 0 , 0) 
 At (0.525 , 0.975 , 0.05 )  Deviation = 0.151076 Body force = (-7.13897 , -46.8941 , -0) 
 At (0.575 , 0.975 , 0.05 )  Deviation = 0.130716 Body force = (-5.36059 , -40.7757 , -0) 
 At (0.625 , 0.975 , 0.05 )  Deviation = 0.113063 Body force = (-4.02312 , -35.4312 , -0) 
 At (0.675 , 0.975 , 0.05 )  Deviation = 0.0977627 Body force = (-3.01598 , -30.7516 , -0) 
 At (0.725 , 0.975 , 0.05 )  Deviation = 0.0845155 Body force = (-2.25969 , -26.6733 , -0) 
 At (0.775 , 0.975 , 0.05 )  Deviation = 0.0730561 Body force = (-1.69262 , -23.1276 , -0) 
 At (0.825 , 0.975 , 0.05 )  Deviation = 0.0631463 Body force = (-1.26754 , -20.0464 , -0) 
 At (0.875 , 0.975 , 0.05 )  Deviation = 0.0545775 Body force = (-0.948923 , -17.3695 , -0) 
 At (0.925 , 0.975 , 0.05 )  Deviation = 0.0471693 Body force = (-0.710193 , -15.0451 , -0) 
 At (0.975 , 0.975 , 0.05 )  Deviation = 0.0407656 Body force = (-0.531391 , -13.0281 , -0) 
 At (1.025 , 0.975 , 0.05 )  Deviation = 0.0352306 Body force = (-0.397519 , -11.2787 , -0) 
 At (1.075 , 0.975 , 0.05 )  Deviation = 0.0304469 Body force = (-0.297316 , -9.76205 , -0) 
 At (1.125 , 0.975 , 0.05 )  Deviation = 0.0263126 Body force = (-0.222333 , -8.44774 , -0) 
 At (1.175 , 0.975 , 0.05 )  Deviation = 0.0227396 Body force = (-0.166236 , -7.30915 , -0) 
 At (1.225 , 0.975 , 0.05 )  Deviation = 0.0196518 Body force = (-0.124276 , -6.32309 , -0) 
 At (1.275 , 0.975 , 0.05 )  Deviation = 0.0169833 Body force = (-0.0928966 , -5.46935 , -0) 
 At (1.325 , 0.975 , 0.05 )  Deviation = 0.0146772 Body force = (-0.0694333 , -4.73035 , -0) 
 At (1.375 , 0.975 , 0.05 )  Deviation = 0.0126843 Body force = (-0.0518916 , -4.0908 , -0) 
 At (1.425 , 0.975 , 0.05 )  Deviation = 0.010962 Body force = (-0.0387789 , -3.53742 , -0) 
 At (1.475 , 0.975 , 0.05 )  Deviation = 0.00947338 Body force = (-0.028976 , -3.05858 , -0) 
 At (1.525 , 0.975 , 0.05 )  Deviation = -3.93254e-08 Body force = (0 , 0 , 0) 
 At (1.575 , 0.975 , 0.05 )  Deviation = -1.30816e-08 Body force = (0 , 0 , 0) 
 At (1.625 , 0.975 , 0.05 )  Deviation = 1.34981e-09 Body force = (0 , 0 , 0) 
 At (1.675 , 0.975 , 0.05 )  Deviation = 1.28725e-09 Body force = (0 , 0 , 0) 
 At (1.725 , 0.975 , 0.05 )  Deviation = -7.91119e-11 Body force = (0 , 0 , 0) 
 At (1.775 , 0.975 , 0.05 )  Deviation = 3.36037e-10 Body force = (0 , 0 , 0) 
 At (1.825 , 0.975 , 0.05 )  Deviation = 1.04051e-09 Body force = (0 , 0 , 0) 
 At (1.875 , 0.975 , 0.05 )  Deviation = 6.34595e-10 Body force = (0 , 0 , 0) 
 At (1.925 , 0.975 , 0.05 )  Deviation = -2.68079e-12 Body force = (0 , 0 , 0) 
 At (1.975 , 0.975 , 0.05 )  Deviation = -5.52546e-12 Body force = (0 , 0 , 0) 
**codeSetValue**
smoothSolver:  Solving for Ux, Initial residual = 9.20837e-05, Final residual = 3.21782e-06, No Iterations 2
smoothSolver:  Solving for Uy, Initial residual = 1.30435e-08, Final residual = 2.52513e-09, No Iterations 1
**codeCorrect**
GAMG:  Solving for p, Initial residual = 2.5174e-05, Final residual = 8.88059e-07, No Iterations 2
time step continuity errors : sum local = 9.16508e-08, global = 4.29666e-08, cumulative = -2.54424e-07
**codeCorrect**
ExecutionTime = 7.71 s  ClockTime = 9 s


SIMPLE solution converged in 100 iterations

End

