/*---------------------------------------------------------------------------*\
| =========                 |                                                 |
| \\      /  F ield         | OpenFOAM: The Open Source CFD Toolbox           |
|  \\    /   O peration     | Version:  5.x                                   |
|   \\  /    A nd           | Web:      www.OpenFOAM.org                      |
|    \\/     M anipulation  |                                                 |
\*---------------------------------------------------------------------------*/
Build  : 5.x-197d9d3bf20a
Exec   : simpleFoam
Date   : Jan 29 2019
Time   : 23:26:03
Host   : "palak"
PID    : 2799
I/O    : uncollated
Case   : /home/palak/OpenFOAM/palak-5.0/run/Z1flatanalytical
nProcs : 1
sigFpe : Enabling floating point exception trapping (FOAM_SIGFPE).
fileModificationChecking : Monitoring run-time modified files using timeStampMaster (fileModificationSkew 10)
allowSystemOperations : Allowing user-supplied system call operations

// * * * * * * * * * * * * * * * * * * * * * * * * * * * * * * * * * * * * * //
Create time

Create mesh for time = 78


SIMPLE: convergence criteria
    field p	 tolerance 0.001
    field U	 tolerance 0.0001
    field "(k|epsilon)"	 tolerance 0.0001

Reading field p

Reading field U

Reading/calculating face flux field phi

Selecting incompressible transport model Newtonian
Selecting turbulence model type laminar
Selecting laminar stress model Stokes
No MRF models present

Creating finite volume options from "constant/fvOptions"

Selecting finite volume options model type vectorCodedSource
    Source: momentumSource
    - selecting all cells
    - selected 800 cell(s) with volume 0.2

Starting time loop

Time = 79

Using dynamicCode for fvOption:: bodyForce at line 25 in "/home/palak/OpenFOAM/palak-5.0/run/Z1flatanalytical/constant/fvOptions.momentumSource.vectorCodedSourceCoeffs"
Creating new library in "dynamicCode/bodyForce/platforms/linux64GccDPInt32Opt/lib/libbodyForce_c33dec8d359305b265b407fed17d9682f2dab5ae.so"
Invoking "wmake -s libso /home/palak/OpenFOAM/palak-5.0/run/Z1flatanalytical/dynamicCode/bodyForce"
wmake libso /home/palak/OpenFOAM/palak-5.0/run/Z1flatanalytical/dynamicCode/bodyForce
    wmkdep: codedFvOptionTemplate.C
    Ctoo: codedFvOptionTemplate.C
    ld: /home/palak/OpenFOAM/palak-5.0/run/Z1flatanalytical/dynamicCode/bodyForce/../platforms/linux64GccDPInt32Opt/lib/libbodyForce_c33dec8d359305b265b407fed17d9682f2dab5ae.so
Selecting finite volume options model type bodyForce
    Source: bodyForce
    - selecting all cells
    - selected 800 cell(s) with volume 0.2
**codeSetValue**
smoothSolver:  Solving for Ux, Initial residual = 0.44103, Final residual = 0.0166441, No Iterations 2
smoothSolver:  Solving for Uy, Initial residual = 0.0304468, Final residual = 0.00136362, No Iterations 2
**codeCorrect**
GAMG:  Solving for p, Initial residual = 0.175566, Final residual = 0.00921642, No Iterations 2
time step continuity errors : sum local = 0.00123509, global = -0.000268186, cumulative = -0.000268186
**codeCorrect**
ExecutionTime = 0.14 s  ClockTime = 23 s

Time = 80

 At (0.025 , 0.025 , 0.05 )  Deviation = 6.91951e-310 Body force = (0 , 0 , 0) 
 At (0.075 , 0.025 , 0.05 )  Deviation = 6.91951e-310 Body force = (0 , 0 , 0) 
 At (0.125 , 0.025 , 0.05 )  Deviation = 1.6186e-316 Body force = (0 , 0 , 0) 
 At (0.175 , 0.025 , 0.05 )  Deviation = 1.6186e-316 Body force = (0 , 0 , 0) 
 At (0.225 , 0.025 , 0.05 )  Deviation = 6.65698e-11 Body force = (0 , 0 , 0) 
 At (0.275 , 0.025 , 0.05 )  Deviation = 0 Body force = (0 , 0 , 0) 
 At (0.325 , 0.025 , 0.05 )  Deviation = 10 Body force = (0 , 0 , 0) 
 At (0.375 , 0.025 , 0.05 )  Deviation = 1.6039e-10 Body force = (0 , 0 , 0) 
 At (0.425 , 0.025 , 0.05 )  Deviation = 0 Body force = (0 , 0 , 0) 
 At (0.475 , 0.025 , 0.05 )  Deviation = 10 Body force = (0 , 0 , 0) 
 At (0.525 , 0.025 , 0.05 )  Deviation = 0.118705 Body force = (-13.2245 , -110.883 , -0) 
 At (0.575 , 0.025 , 0.05 )  Deviation = 0.0806523 Body force = (-6.15313 , -76.1266 , -0) 
 At (0.625 , 0.025 , 0.05 )  Deviation = 0.0549209 Body force = (-2.87406 , -52.2782 , -0) 
 At (0.675 , 0.025 , 0.05 )  Deviation = 0.0375606 Body force = (-1.3513 , -35.9596 , -0) 
 At (0.725 , 0.025 , 0.05 )  Deviation = 0.0258662 Body force = (-0.643336 , -24.8662 , -0) 
 At (0.775 , 0.025 , 0.05 )  Deviation = 0.0179757 Body force = (-0.311627 , -17.3341 , -0) 
 At (0.825 , 0.025 , 0.05 )  Deviation = 0.0126202 Body force = (-0.153938 , -12.1971 , -0) 
 At (0.875 , 0.025 , 0.05 )  Deviation = 0.00895404 Body force = (-0.0776121 , -8.66759 , -0) 
 At (0.925 , 0.025 , 0.05 )  Deviation = 0.00641944 Body force = (-0.0399355 , -6.22094 , -0) 
 At (0.975 , 0.025 , 0.05 )  Deviation = 0.0046482 Body force = (-0.0209542 , -4.50798 , -0) 
 At (1.025 , 0.025 , 0.05 )  Deviation = 0.00339619 Body force = (-0.0111924 , -3.29556 , -0) 
 At (1.075 , 0.025 , 0.05 )  Deviation = 0.00250118 Body force = (-0.00607294 , -2.42802 , -0) 
 At (1.125 , 0.025 , 0.05 )  Deviation = 0.00185442 Body force = (-0.0033392 , -1.80067 , -0) 
 At (1.175 , 0.025 , 0.05 )  Deviation = 0.00138256 Body force = (-0.00185645 , -1.34276 , -0) 
 At (1.225 , 0.025 , 0.05 )  Deviation = 0.00103534 Body force = (-0.00104123 , -1.00568 , -0) 
 At (1.275 , 0.025 , 0.05 )  Deviation = 0.000778037 Body force = (-0.000588063 , -0.755829 , -0) 
 At (1.325 , 0.025 , 0.05 )  Deviation = 0.000586203 Body force = (-0.000333851 , -0.569514 , -0) 
 At (1.375 , 0.025 , 0.05 )  Deviation = 0.000442514 Body force = (-0.000190255 , -0.42994 , -0) 
 At (1.425 , 0.025 , 0.05 )  Deviation = 0.00033444 Body force = (-0.000108677 , -0.324951 , -0) 
 At (1.475 , 0.025 , 0.05 )  Deviation = 0.000252955 Body force = (-6.21725e-05 , -0.245785 , -0) 
 At (1.525 , 0.025 , 0.05 )  Deviation = 9.97051 Body force = (0 , 0 , 0) 
 At (1.575 , 0.025 , 0.05 )  Deviation = -0.557368 Body force = (0 , 0 , 0) 
 At (1.625 , 0.025 , 0.05 )  Deviation = 0 Body force = (0 , 0 , 0) 
 At (1.675 , 0.025 , 0.05 )  Deviation = 9.97311 Body force = (0 , 0 , 0) 
 At (1.725 , 0.025 , 0.05 )  Deviation = -0.939093 Body force = (0 , 0 , 0) 
 At (1.775 , 0.025 , 0.05 )  Deviation = 0 Body force = (0 , 0 , 0) 
 At (1.825 , 0.025 , 0.05 )  Deviation = 9.97918 Body force = (0 , 0 , 0) 
 At (1.875 , 0.025 , 0.05 )  Deviation = -1.19886 Body force = (0 , 0 , 0) 
 At (1.925 , 0.025 , 0.05 )  Deviation = 0 Body force = (0 , 0 , 0) 
 At (1.975 , 0.025 , 0.05 )  Deviation = 9.98255 Body force = (0 , 0 , 0) 
 At (0.025 , 0.075 , 0.05 )  Deviation = -1.37477 Body force = (0 , 0 , 0) 
 At (0.075 , 0.075 , 0.05 )  Deviation = 0 Body force = (0 , 0 , 0) 
 At (0.125 , 0.075 , 0.05 )  Deviation = 9.9857 Body force = (0 , 0 , 0) 
 At (0.175 , 0.075 , 0.05 )  Deviation = -1.49384 Body force = (0 , 0 , 0) 
 At (0.225 , 0.075 , 0.05 )  Deviation = 0 Body force = (0 , 0 , 0) 
 At (0.275 , 0.075 , 0.05 )  Deviation = 9.98917 Body force = (0 , 0 , 0) 
 At (0.325 , 0.075 , 0.05 )  Deviation = -1.57473 Body force = (0 , 0 , 0) 
 At (0.375 , 0.075 , 0.05 )  Deviation = 0 Body force = (0 , 0 , 0) 
 At (0.425 , 0.075 , 0.05 )  Deviation = 9.99227 Body force = (0 , 0 , 0) 
 At (0.475 , 0.075 , 0.05 )  Deviation = -1.63003 Body force = (0 , 0 , 0) 
 At (0.525 , 0.075 , 0.05 )  Deviation = 0.118703 Body force = (-13.2241 , -110.881 , -0) 
 At (0.575 , 0.075 , 0.05 )  Deviation = 0.0806511 Body force = (-6.15296 , -76.1256 , -0) 
 At (0.625 , 0.075 , 0.05 )  Deviation = 0.0549205 Body force = (-2.87402 , -52.2779 , -0) 
 At (0.675 , 0.075 , 0.05 )  Deviation = 0.0375607 Body force = (-1.3513 , -35.9597 , -0) 
 At (0.725 , 0.075 , 0.05 )  Deviation = 0.0258665 Body force = (-0.643352 , -24.8665 , -0) 
 At (0.775 , 0.075 , 0.05 )  Deviation = 0.0179759 Body force = (-0.311634 , -17.3343 , -0) 
 At (0.825 , 0.075 , 0.05 )  Deviation = 0.0126203 Body force = (-0.153941 , -12.1972 , -0) 
 At (0.875 , 0.075 , 0.05 )  Deviation = 0.00895399 Body force = (-0.0776111 , -8.66754 , -0) 
 At (0.925 , 0.075 , 0.05 )  Deviation = 0.00641935 Body force = (-0.0399344 , -6.22085 , -0) 
 At (0.975 , 0.075 , 0.05 )  Deviation = 0.00464803 Body force = (-0.0209527 , -4.50782 , -0) 
 At (1.025 , 0.075 , 0.05 )  Deviation = 0.00339606 Body force = (-0.0111915 , -3.29543 , -0) 
 At (1.075 , 0.075 , 0.05 )  Deviation = 0.00250104 Body force = (-0.00607226 , -2.42789 , -0) 
 At (1.125 , 0.075 , 0.05 )  Deviation = 0.00185433 Body force = (-0.0033389 , -1.80059 , -0) 
 At (1.175 , 0.075 , 0.05 )  Deviation = 0.00138249 Body force = (-0.00185626 , -1.34269 , -0) 
 At (1.225 , 0.075 , 0.05 )  Deviation = 0.00103532 Body force = (-0.00104118 , -1.00566 , -0) 
 At (1.275 , 0.075 , 0.05 )  Deviation = 0.000778031 Body force = (-0.000588054 , -0.755823 , -0) 
 At (1.325 , 0.075 , 0.05 )  Deviation = 0.000586235 Body force = (-0.000333888 , -0.569546 , -0) 
 At (1.375 , 0.075 , 0.05 )  Deviation = 0.000442564 Body force = (-0.000190297 , -0.429989 , -0) 
 At (1.425 , 0.075 , 0.05 )  Deviation = 0.000334516 Body force = (-0.000108726 , -0.325024 , -0) 
 At (1.475 , 0.075 , 0.05 )  Deviation = 0.000253042 Body force = (-6.22155e-05 , -0.24587 , -0) 
 At (1.525 , 0.075 , 0.05 )  Deviation = -1.74819 Body force = (0 , 0 , 0) 
 At (1.575 , 0.075 , 0.05 )  Deviation = 0 Body force = (0 , 0 , 0) 
 At (1.625 , 0.075 , 0.05 )  Deviation = 9.99968 Body force = (0 , 0 , 0) 
 At (1.675 , 0.075 , 0.05 )  Deviation = -1.75195 Body force = (0 , 0 , 0) 
 At (1.725 , 0.075 , 0.05 )  Deviation = 0 Body force = (0 , 0 , 0) 
 At (1.775 , 0.075 , 0.05 )  Deviation = 9.99979 Body force = (0 , 0 , 0) 
 At (1.825 , 0.075 , 0.05 )  Deviation = -1.75474 Body force = (0 , 0 , 0) 
 At (1.875 , 0.075 , 0.05 )  Deviation = 0 Body force = (0 , 0 , 0) 
 At (1.925 , 0.075 , 0.05 )  Deviation = 9.99987 Body force = (0 , 0 , 0) 
 At (1.975 , 0.075 , 0.05 )  Deviation = -1.75683 Body force = (0 , 0 , 0) 
 At (0.025 , 0.125 , 0.05 )  Deviation = 0 Body force = (0 , 0 , 0) 
 At (0.075 , 0.125 , 0.05 )  Deviation = 9.99992 Body force = (0 , 0 , 0) 
 At (0.125 , 0.125 , 0.05 )  Deviation = -1.7584 Body force = (0 , 0 , 0) 
 At (0.175 , 0.125 , 0.05 )  Deviation = 0 Body force = (0 , 0 , 0) 
 At (0.225 , 0.125 , 0.05 )  Deviation = 9.99995 Body force = (0 , 0 , 0) 
 At (0.275 , 0.125 , 0.05 )  Deviation = -1.75958 Body force = (0 , 0 , 0) 
 At (0.325 , 0.125 , 0.05 )  Deviation = 0 Body force = (0 , 0 , 0) 
 At (0.375 , 0.125 , 0.05 )  Deviation = 9.99997 Body force = (0 , 0 , 0) 
 At (0.425 , 0.125 , 0.05 )  Deviation = -1.76047 Body force = (0 , 0 , 0) 
 At (0.475 , 0.125 , 0.05 )  Deviation = 0 Body force = (0 , 0 , 0) 
 At (0.525 , 0.125 , 0.05 )  Deviation = 0.118704 Body force = (-13.2242 , -110.882 , -0) 
 At (0.575 , 0.125 , 0.05 )  Deviation = 0.0806514 Body force = (-6.153 , -76.1259 , -0) 
 At (0.625 , 0.125 , 0.05 )  Deviation = 0.0549205 Body force = (-2.87403 , -52.278 , -0) 
 At (0.675 , 0.125 , 0.05 )  Deviation = 0.0375605 Body force = (-1.3513 , -35.9595 , -0) 
 At (0.725 , 0.125 , 0.05 )  Deviation = 0.0258663 Body force = (-0.643342 , -24.8663 , -0) 
 At (0.775 , 0.125 , 0.05 )  Deviation = 0.0179758 Body force = (-0.311628 , -17.3341 , -0) 
 At (0.825 , 0.125 , 0.05 )  Deviation = 0.0126202 Body force = (-0.153938 , -12.1971 , -0) 
 At (0.875 , 0.125 , 0.05 )  Deviation = 0.00895393 Body force = (-0.0776102 , -8.66749 , -0) 
 At (0.925 , 0.125 , 0.05 )  Deviation = 0.00641934 Body force = (-0.0399343 , -6.22085 , -0) 
 At (0.975 , 0.125 , 0.05 )  Deviation = 0.00464805 Body force = (-0.0209528 , -4.50784 , -0) 
 At (1.025 , 0.125 , 0.05 )  Deviation = 0.00339609 Body force = (-0.0111918 , -3.29546 , -0) 
 At (1.075 , 0.125 , 0.05 )  Deviation = 0.00250108 Body force = (-0.00607243 , -2.42792 , -0) 
 At (1.125 , 0.125 , 0.05 )  Deviation = 0.00185437 Body force = (-0.00333903 , -1.80063 , -0) 
 At (1.175 , 0.125 , 0.05 )  Deviation = 0.00138252 Body force = (-0.00185635 , -1.34273 , -0) 
 At (1.225 , 0.125 , 0.05 )  Deviation = 0.00103535 Body force = (-0.00104124 , -1.00569 , -0) 
 At (1.275 , 0.125 , 0.05 )  Deviation = 0.000778062 Body force = (-0.000588101 , -0.755853 , -0) 
 At (1.325 , 0.125 , 0.05 )  Deviation = 0.000586264 Body force = (-0.000333921 , -0.569574 , -0) 
 At (1.375 , 0.125 , 0.05 )  Deviation = 0.000442592 Body force = (-0.000190322 , -0.430016 , -0) 
 At (1.425 , 0.125 , 0.05 )  Deviation = 0.000334542 Body force = (-0.000108743 , -0.32505 , -0) 
 At (1.475 , 0.125 , 0.05 )  Deviation = 0.000253067 Body force = (-6.22279e-05 , -0.245895 , -0) 
 At (1.525 , 0.125 , 0.05 )  Deviation = 0 Body force = (0 , 0 , 0) 
 At (1.575 , 0.125 , 0.05 )  Deviation = 10 Body force = (0 , 0 , 0) 
 At (1.625 , 0.125 , 0.05 )  Deviation = -1.75575 Body force = (0 , 0 , 0) 
 At (1.675 , 0.125 , 0.05 )  Deviation = 0 Body force = (0 , 0 , 0) 
 At (1.725 , 0.125 , 0.05 )  Deviation = 10 Body force = (0 , 0 , 0) 
 At (1.775 , 0.125 , 0.05 )  Deviation = -1.7557 Body force = (0 , 0 , 0) 
 At (1.825 , 0.125 , 0.05 )  Deviation = 0 Body force = (0 , 0 , 0) 
 At (1.875 , 0.125 , 0.05 )  Deviation = 10 Body force = (0 , 0 , 0) 
 At (1.925 , 0.125 , 0.05 )  Deviation = -1.75568 Body force = (0 , 0 , 0) 
 At (1.975 , 0.125 , 0.05 )  Deviation = 0 Body force = (0 , 0 , 0) 
 At (0.025 , 0.175 , 0.05 )  Deviation = 10 Body force = (0 , 0 , 0) 
 At (0.075 , 0.175 , 0.05 )  Deviation = -3.15571e-10 Body force = (0 , 0 , 0) 
 At (0.125 , 0.175 , 0.05 )  Deviation = 0 Body force = (0 , 0 , 0) 
 At (0.175 , 0.175 , 0.05 )  Deviation = 10 Body force = (0 , 0 , 0) 
 At (0.225 , 0.175 , 0.05 )  Deviation = -5.72504e-10 Body force = (0 , 0 , 0) 
 At (0.275 , 0.175 , 0.05 )  Deviation = 0 Body force = (0 , 0 , 0) 
 At (0.325 , 0.175 , 0.05 )  Deviation = 10 Body force = (0 , 0 , 0) 
 At (0.375 , 0.175 , 0.05 )  Deviation = -7.17394e-10 Body force = (0 , 0 , 0) 
 At (0.425 , 0.175 , 0.05 )  Deviation = 0 Body force = (0 , 0 , 0) 
 At (0.475 , 0.175 , 0.05 )  Deviation = 10 Body force = (0 , 0 , 0) 
 At (0.525 , 0.175 , 0.05 )  Deviation = 0.118704 Body force = (-13.2242 , -110.882 , -0) 
 At (0.575 , 0.175 , 0.05 )  Deviation = 0.0806515 Body force = (-6.15303 , -76.126 , -0) 
 At (0.625 , 0.175 , 0.05 )  Deviation = 0.0549206 Body force = (-2.87403 , -52.278 , -0) 
 At (0.675 , 0.175 , 0.05 )  Deviation = 0.0375605 Body force = (-1.35129 , -35.9595 , -0) 
 At (0.725 , 0.175 , 0.05 )  Deviation = 0.0258662 Body force = (-0.643338 , -24.8662 , -0) 
 At (0.775 , 0.175 , 0.05 )  Deviation = 0.0179757 Body force = (-0.311626 , -17.3341 , -0) 
 At (0.825 , 0.175 , 0.05 )  Deviation = 0.0126201 Body force = (-0.153936 , -12.197 , -0) 
 At (0.875 , 0.175 , 0.05 )  Deviation = 0.0089539 Body force = (-0.0776096 , -8.66746 , -0) 
 At (0.925 , 0.175 , 0.05 )  Deviation = 0.0064193 Body force = (-0.0399338 , -6.22081 , -0) 
 At (0.975 , 0.175 , 0.05 )  Deviation = 0.00464803 Body force = (-0.0209526 , -4.50782 , -0) 
 At (1.025 , 0.175 , 0.05 )  Deviation = 0.00339606 Body force = (-0.0111915 , -3.29543 , -0) 
 At (1.075 , 0.175 , 0.05 )  Deviation = 0.00250105 Body force = (-0.0060723 , -2.42789 , -0) 
 At (1.125 , 0.175 , 0.05 )  Deviation = 0.00185433 Body force = (-0.0033389 , -1.80059 , -0) 
 At (1.175 , 0.175 , 0.05 )  Deviation = 0.00138249 Body force = (-0.00185627 , -1.3427 , -0) 
 At (1.225 , 0.175 , 0.05 )  Deviation = 0.00103532 Body force = (-0.00104118 , -1.00566 , -0) 
 At (1.275 , 0.175 , 0.05 )  Deviation = 0.000778035 Body force = (-0.00058806 , -0.755827 , -0) 
 At (1.325 , 0.175 , 0.05 )  Deviation = 0.000586238 Body force = (-0.000333891 , -0.569548 , -0) 
 At (1.375 , 0.175 , 0.05 )  Deviation = 0.00044257 Body force = (-0.000190303 , -0.429995 , -0) 
 At (1.425 , 0.175 , 0.05 )  Deviation = 0.000334522 Body force = (-0.00010873 , -0.325031 , -0) 
 At (1.475 , 0.175 , 0.05 )  Deviation = 0.000253051 Body force = (-6.22199e-05 , -0.245879 , -0) 
 At (1.525 , 0.175 , 0.05 )  Deviation = 9.97051 Body force = (0 , 0 , 0) 
 At (1.575 , 0.175 , 0.05 )  Deviation = -0.557368 Body force = (0 , 0 , 0) 
 At (1.625 , 0.175 , 0.05 )  Deviation = 0 Body force = (0 , 0 , 0) 
 At (1.675 , 0.175 , 0.05 )  Deviation = 9.97311 Body force = (0 , 0 , 0) 
 At (1.725 , 0.175 , 0.05 )  Deviation = -0.939094 Body force = (0 , 0 , 0) 
 At (1.775 , 0.175 , 0.05 )  Deviation = 0 Body force = (0 , 0 , 0) 
 At (1.825 , 0.175 , 0.05 )  Deviation = 9.97918 Body force = (0 , 0 , 0) 
 At (1.875 , 0.175 , 0.05 )  Deviation = -1.19886 Body force = (0 , 0 , 0) 
 At (1.925 , 0.175 , 0.05 )  Deviation = 0 Body force = (0 , 0 , 0) 
 At (1.975 , 0.175 , 0.05 )  Deviation = 9.98255 Body force = (0 , 0 , 0) 
 At (0.025 , 0.225 , 0.05 )  Deviation = -1.37477 Body force = (0 , 0 , 0) 
 At (0.075 , 0.225 , 0.05 )  Deviation = 0 Body force = (0 , 0 , 0) 
 At (0.125 , 0.225 , 0.05 )  Deviation = 9.9857 Body force = (0 , 0 , 0) 
 At (0.175 , 0.225 , 0.05 )  Deviation = -1.49384 Body force = (0 , 0 , 0) 
 At (0.225 , 0.225 , 0.05 )  Deviation = 0 Body force = (0 , 0 , 0) 
 At (0.275 , 0.225 , 0.05 )  Deviation = 9.98917 Body force = (0 , 0 , 0) 
 At (0.325 , 0.225 , 0.05 )  Deviation = -1.57473 Body force = (0 , 0 , 0) 
 At (0.375 , 0.225 , 0.05 )  Deviation = 0 Body force = (0 , 0 , 0) 
 At (0.425 , 0.225 , 0.05 )  Deviation = 9.99227 Body force = (0 , 0 , 0) 
 At (0.475 , 0.225 , 0.05 )  Deviation = -1.63003 Body force = (0 , 0 , 0) 
 At (0.525 , 0.225 , 0.05 )  Deviation = 0.118704 Body force = (-13.2243 , -110.882 , -0) 
 At (0.575 , 0.225 , 0.05 )  Deviation = 0.0806516 Body force = (-6.15304 , -76.1261 , -0) 
 At (0.625 , 0.225 , 0.05 )  Deviation = 0.0549206 Body force = (-2.87403 , -52.2781 , -0) 
 At (0.675 , 0.225 , 0.05 )  Deviation = 0.0375605 Body force = (-1.35129 , -35.9595 , -0) 
 At (0.725 , 0.225 , 0.05 )  Deviation = 0.0258662 Body force = (-0.643337 , -24.8662 , -0) 
 At (0.775 , 0.225 , 0.05 )  Deviation = 0.0179757 Body force = (-0.311625 , -17.334 , -0) 
 At (0.825 , 0.225 , 0.05 )  Deviation = 0.0126201 Body force = (-0.153936 , -12.197 , -0) 
 At (0.875 , 0.225 , 0.05 )  Deviation = 0.00895388 Body force = (-0.0776092 , -8.66743 , -0) 
 At (0.925 , 0.225 , 0.05 )  Deviation = 0.00641928 Body force = (-0.0399335 , -6.22079 , -0) 
 At (0.975 , 0.225 , 0.05 )  Deviation = 0.004648 Body force = (-0.0209523 , -4.50779 , -0) 
 At (1.025 , 0.225 , 0.05 )  Deviation = 0.00339602 Body force = (-0.0111913 , -3.2954 , -0) 
 At (1.075 , 0.225 , 0.05 )  Deviation = 0.00250101 Body force = (-0.0060721 , -2.42785 , -0) 
 At (1.125 , 0.225 , 0.05 )  Deviation = 0.00185429 Body force = (-0.00333874 , -1.80055 , -0) 
 At (1.175 , 0.225 , 0.05 )  Deviation = 0.00138245 Body force = (-0.00185615 , -1.34265 , -0) 
 At (1.225 , 0.225 , 0.05 )  Deviation = 0.00103527 Body force = (-0.00104109 , -1.00562 , -0) 
 At (1.275 , 0.225 , 0.05 )  Deviation = 0.000777992 Body force = (-0.000587995 , -0.755785 , -0) 
 At (1.325 , 0.225 , 0.05 )  Deviation = 0.000586197 Body force = (-0.000333845 , -0.569509 , -0) 
 At (1.375 , 0.225 , 0.05 )  Deviation = 0.000442533 Body force = (-0.000190271 , -0.429958 , -0) 
 At (1.425 , 0.225 , 0.05 )  Deviation = 0.000334488 Body force = (-0.000108708 , -0.324997 , -0) 
 At (1.475 , 0.225 , 0.05 )  Deviation = 0.00025302 Body force = (-6.22045e-05 , -0.245848 , -0) 
 At (1.525 , 0.225 , 0.05 )  Deviation = -1.74819 Body force = (0 , 0 , 0) 
 At (1.575 , 0.225 , 0.05 )  Deviation = 0 Body force = (0 , 0 , 0) 
 At (1.625 , 0.225 , 0.05 )  Deviation = 9.99968 Body force = (0 , 0 , 0) 
 At (1.675 , 0.225 , 0.05 )  Deviation = -1.75195 Body force = (0 , 0 , 0) 
 At (1.725 , 0.225 , 0.05 )  Deviation = 0 Body force = (0 , 0 , 0) 
 At (1.775 , 0.225 , 0.05 )  Deviation = 9.99979 Body force = (0 , 0 , 0) 
 At (1.825 , 0.225 , 0.05 )  Deviation = -1.75474 Body force = (0 , 0 , 0) 
 At (1.875 , 0.225 , 0.05 )  Deviation = 0 Body force = (0 , 0 , 0) 
 At (1.925 , 0.225 , 0.05 )  Deviation = 9.99987 Body force = (0 , 0 , 0) 
 At (1.975 , 0.225 , 0.05 )  Deviation = -1.75683 Body force = (0 , 0 , 0) 
 At (0.025 , 0.275 , 0.05 )  Deviation = 0 Body force = (0 , 0 , 0) 
 At (0.075 , 0.275 , 0.05 )  Deviation = 9.99992 Body force = (0 , 0 , 0) 
 At (0.125 , 0.275 , 0.05 )  Deviation = -1.7584 Body force = (0 , 0 , 0) 
 At (0.175 , 0.275 , 0.05 )  Deviation = 0 Body force = (0 , 0 , 0) 
 At (0.225 , 0.275 , 0.05 )  Deviation = 9.99995 Body force = (0 , 0 , 0) 
 At (0.275 , 0.275 , 0.05 )  Deviation = -1.75958 Body force = (0 , 0 , 0) 
 At (0.325 , 0.275 , 0.05 )  Deviation = 0 Body force = (0 , 0 , 0) 
 At (0.375 , 0.275 , 0.05 )  Deviation = 9.99997 Body force = (0 , 0 , 0) 
 At (0.425 , 0.275 , 0.05 )  Deviation = -1.76047 Body force = (0 , 0 , 0) 
 At (0.475 , 0.275 , 0.05 )  Deviation = 0 Body force = (0 , 0 , 0) 
 At (0.525 , 0.275 , 0.05 )  Deviation = 0.118704 Body force = (-13.2243 , -110.882 , -0) 
 At (0.575 , 0.275 , 0.05 )  Deviation = 0.0806516 Body force = (-6.15304 , -76.1261 , -0) 
 At (0.625 , 0.275 , 0.05 )  Deviation = 0.0549206 Body force = (-2.87404 , -52.2781 , -0) 
 At (0.675 , 0.275 , 0.05 )  Deviation = 0.0375605 Body force = (-1.35129 , -35.9595 , -0) 
 At (0.725 , 0.275 , 0.05 )  Deviation = 0.0258662 Body force = (-0.643337 , -24.8662 , -0) 
 At (0.775 , 0.275 , 0.05 )  Deviation = 0.0179757 Body force = (-0.311624 , -17.334 , -0) 
 At (0.825 , 0.275 , 0.05 )  Deviation = 0.0126201 Body force = (-0.153936 , -12.197 , -0) 
 At (0.875 , 0.275 , 0.05 )  Deviation = 0.00895387 Body force = (-0.0776091 , -8.66743 , -0) 
 At (0.925 , 0.275 , 0.05 )  Deviation = 0.00641926 Body force = (-0.0399333 , -6.22077 , -0) 
 At (0.975 , 0.275 , 0.05 )  Deviation = 0.00464797 Body force = (-0.0209521 , -4.50777 , -0) 
 At (1.025 , 0.275 , 0.05 )  Deviation = 0.00339599 Body force = (-0.0111911 , -3.29537 , -0) 
 At (1.075 , 0.275 , 0.05 )  Deviation = 0.00250097 Body force = (-0.00607192 , -2.42782 , -0) 
 At (1.125 , 0.275 , 0.05 )  Deviation = 0.00185425 Body force = (-0.00333859 , -1.80051 , -0) 
 At (1.175 , 0.275 , 0.05 )  Deviation = 0.00138241 Body force = (-0.00185603 , -1.34261 , -0) 
 At (1.225 , 0.275 , 0.05 )  Deviation = 0.00103523 Body force = (-0.001041 , -1.00557 , -0) 
 At (1.275 , 0.275 , 0.05 )  Deviation = 0.000777949 Body force = (-0.00058793 , -0.755743 , -0) 
 At (1.325 , 0.275 , 0.05 )  Deviation = 0.000586155 Body force = (-0.000333797 , -0.569468 , -0) 
 At (1.375 , 0.275 , 0.05 )  Deviation = 0.000442492 Body force = (-0.000190236 , -0.429919 , -0) 
 At (1.425 , 0.275 , 0.05 )  Deviation = 0.00033445 Body force = (-0.000108683 , -0.32496 , -0) 
 At (1.475 , 0.275 , 0.05 )  Deviation = 0.000252984 Body force = (-6.21869e-05 , -0.245814 , -0) 
 At (1.525 , 0.275 , 0.05 )  Deviation = 0 Body force = (0 , 0 , 0) 
 At (1.575 , 0.275 , 0.05 )  Deviation = 10 Body force = (0 , 0 , 0) 
 At (1.625 , 0.275 , 0.05 )  Deviation = -1.75575 Body force = (0 , 0 , 0) 
 At (1.675 , 0.275 , 0.05 )  Deviation = 0 Body force = (0 , 0 , 0) 
 At (1.725 , 0.275 , 0.05 )  Deviation = 10 Body force = (0 , 0 , 0) 
 At (1.775 , 0.275 , 0.05 )  Deviation = -1.7557 Body force = (0 , 0 , 0) 
 At (1.825 , 0.275 , 0.05 )  Deviation = 0 Body force = (0 , 0 , 0) 
 At (1.875 , 0.275 , 0.05 )  Deviation = 10 Body force = (0 , 0 , 0) 
 At (1.925 , 0.275 , 0.05 )  Deviation = -1.75568 Body force = (0 , 0 , 0) 
 At (1.975 , 0.275 , 0.05 )  Deviation = 0 Body force = (0 , 0 , 0) 
 At (0.025 , 0.325 , 0.05 )  Deviation = 10 Body force = (0 , 0 , 0) 
 At (0.075 , 0.325 , 0.05 )  Deviation = -4.47213e-10 Body force = (0 , 0 , 0) 
 At (0.125 , 0.325 , 0.05 )  Deviation = 0 Body force = (0 , 0 , 0) 
 At (0.175 , 0.325 , 0.05 )  Deviation = 10 Body force = (0 , 0 , 0) 
 At (0.225 , 0.325 , 0.05 )  Deviation = -8.90289e-10 Body force = (0 , 0 , 0) 
 At (0.275 , 0.325 , 0.05 )  Deviation = 0 Body force = (0 , 0 , 0) 
 At (0.325 , 0.325 , 0.05 )  Deviation = 10 Body force = (0 , 0 , 0) 
 At (0.375 , 0.325 , 0.05 )  Deviation = -1.23197e-09 Body force = (0 , 0 , 0) 
 At (0.425 , 0.325 , 0.05 )  Deviation = 0 Body force = (0 , 0 , 0) 
 At (0.475 , 0.325 , 0.05 )  Deviation = 10 Body force = (0 , 0 , 0) 
 At (0.525 , 0.325 , 0.05 )  Deviation = 0.118704 Body force = (-13.2243 , -110.882 , -0) 
 At (0.575 , 0.325 , 0.05 )  Deviation = 0.0806517 Body force = (-6.15305 , -76.1262 , -0) 
 At (0.625 , 0.325 , 0.05 )  Deviation = 0.0549206 Body force = (-2.87404 , -52.2781 , -0) 
 At (0.675 , 0.325 , 0.05 )  Deviation = 0.0375605 Body force = (-1.35129 , -35.9595 , -0) 
 At (0.725 , 0.325 , 0.05 )  Deviation = 0.0258662 Body force = (-0.643337 , -24.8662 , -0) 
 At (0.775 , 0.325 , 0.05 )  Deviation = 0.0179757 Body force = (-0.311625 , -17.334 , -0) 
 At (0.825 , 0.325 , 0.05 )  Deviation = 0.0126201 Body force = (-0.153936 , -12.197 , -0) 
 At (0.875 , 0.325 , 0.05 )  Deviation = 0.00895387 Body force = (-0.077609 , -8.66742 , -0) 
 At (0.925 , 0.325 , 0.05 )  Deviation = 0.00641925 Body force = (-0.0399332 , -6.22077 , -0) 
 At (0.975 , 0.325 , 0.05 )  Deviation = 0.00464796 Body force = (-0.020952 , -4.50775 , -0) 
 At (1.025 , 0.325 , 0.05 )  Deviation = 0.00339597 Body force = (-0.0111909 , -3.29534 , -0) 
 At (1.075 , 0.325 , 0.05 )  Deviation = 0.00250094 Body force = (-0.00607177 , -2.42779 , -0) 
 At (1.125 , 0.325 , 0.05 )  Deviation = 0.00185421 Body force = (-0.00333846 , -1.80048 , -0) 
 At (1.175 , 0.325 , 0.05 )  Deviation = 0.00138237 Body force = (-0.00185593 , -1.34257 , -0) 
 At (1.225 , 0.325 , 0.05 )  Deviation = 0.00103519 Body force = (-0.00104092 , -1.00554 , -0) 
 At (1.275 , 0.325 , 0.05 )  Deviation = 0.000777908 Body force = (-0.000587868 , -0.755704 , -0) 
 At (1.325 , 0.325 , 0.05 )  Deviation = 0.000586115 Body force = (-0.000333751 , -0.569429 , -0) 
 At (1.375 , 0.325 , 0.05 )  Deviation = 0.000442452 Body force = (-0.000190201 , -0.42988 , -0) 
 At (1.425 , 0.325 , 0.05 )  Deviation = 0.00033441 Body force = (-0.000108657 , -0.324922 , -0) 
 At (1.475 , 0.325 , 0.05 )  Deviation = 0.000252946 Body force = (-6.21682e-05 , -0.245777 , -0) 
 At (1.525 , 0.325 , 0.05 )  Deviation = 9.97051 Body force = (0 , 0 , 0) 
 At (1.575 , 0.325 , 0.05 )  Deviation = -0.557368 Body force = (0 , 0 , 0) 
 At (1.625 , 0.325 , 0.05 )  Deviation = 0 Body force = (0 , 0 , 0) 
 At (1.675 , 0.325 , 0.05 )  Deviation = 9.97311 Body force = (0 , 0 , 0) 
 At (1.725 , 0.325 , 0.05 )  Deviation = -0.939094 Body force = (0 , 0 , 0) 
 At (1.775 , 0.325 , 0.05 )  Deviation = 0 Body force = (0 , 0 , 0) 
 At (1.825 , 0.325 , 0.05 )  Deviation = 9.97918 Body force = (0 , 0 , 0) 
 At (1.875 , 0.325 , 0.05 )  Deviation = -1.19886 Body force = (0 , 0 , 0) 
 At (1.925 , 0.325 , 0.05 )  Deviation = 0 Body force = (0 , 0 , 0) 
 At (1.975 , 0.325 , 0.05 )  Deviation = 9.98255 Body force = (0 , 0 , 0) 
 At (0.025 , 0.375 , 0.05 )  Deviation = -1.37477 Body force = (0 , 0 , 0) 
 At (0.075 , 0.375 , 0.05 )  Deviation = 0 Body force = (0 , 0 , 0) 
 At (0.125 , 0.375 , 0.05 )  Deviation = 9.9857 Body force = (0 , 0 , 0) 
 At (0.175 , 0.375 , 0.05 )  Deviation = -1.49384 Body force = (0 , 0 , 0) 
 At (0.225 , 0.375 , 0.05 )  Deviation = 0 Body force = (0 , 0 , 0) 
 At (0.275 , 0.375 , 0.05 )  Deviation = 9.98917 Body force = (0 , 0 , 0) 
 At (0.325 , 0.375 , 0.05 )  Deviation = -1.57473 Body force = (0 , 0 , 0) 
 At (0.375 , 0.375 , 0.05 )  Deviation = 0 Body force = (0 , 0 , 0) 
 At (0.425 , 0.375 , 0.05 )  Deviation = 9.99227 Body force = (0 , 0 , 0) 
 At (0.475 , 0.375 , 0.05 )  Deviation = -1.63003 Body force = (0 , 0 , 0) 
 At (0.525 , 0.375 , 0.05 )  Deviation = 0.118704 Body force = (-13.2243 , -110.882 , -0) 
 At (0.575 , 0.375 , 0.05 )  Deviation = 0.0806517 Body force = (-6.15306 , -76.1262 , -0) 
 At (0.625 , 0.375 , 0.05 )  Deviation = 0.0549207 Body force = (-2.87404 , -52.2782 , -0) 
 At (0.675 , 0.375 , 0.05 )  Deviation = 0.0375605 Body force = (-1.3513 , -35.9596 , -0) 
 At (0.725 , 0.375 , 0.05 )  Deviation = 0.0258662 Body force = (-0.643338 , -24.8662 , -0) 
 At (0.775 , 0.375 , 0.05 )  Deviation = 0.0179757 Body force = (-0.311625 , -17.3341 , -0) 
 At (0.825 , 0.375 , 0.05 )  Deviation = 0.0126201 Body force = (-0.153936 , -12.197 , -0) 
 At (0.875 , 0.375 , 0.05 )  Deviation = 0.00895387 Body force = (-0.0776091 , -8.66743 , -0) 
 At (0.925 , 0.375 , 0.05 )  Deviation = 0.00641925 Body force = (-0.0399332 , -6.22076 , -0) 
 At (0.975 , 0.375 , 0.05 )  Deviation = 0.00464795 Body force = (-0.0209519 , -4.50774 , -0) 
 At (1.025 , 0.375 , 0.05 )  Deviation = 0.00339595 Body force = (-0.0111908 , -3.29532 , -0) 
 At (1.075 , 0.375 , 0.05 )  Deviation = 0.00250092 Body force = (-0.00607164 , -2.42776 , -0) 
 At (1.125 , 0.375 , 0.05 )  Deviation = 0.00185418 Body force = (-0.00333835 , -1.80044 , -0) 
 At (1.175 , 0.375 , 0.05 )  Deviation = 0.00138233 Body force = (-0.00185584 , -1.34254 , -0) 
 At (1.225 , 0.375 , 0.05 )  Deviation = 0.00103515 Body force = (-0.00104084 , -1.0055 , -0) 
 At (1.275 , 0.375 , 0.05 )  Deviation = 0.000777868 Body force = (-0.000587808 , -0.755665 , -0) 
 At (1.325 , 0.375 , 0.05 )  Deviation = 0.000586073 Body force = (-0.000333703 , -0.569388 , -0) 
 At (1.375 , 0.375 , 0.05 )  Deviation = 0.00044241 Body force = (-0.000190166 , -0.42984 , -0) 
 At (1.425 , 0.375 , 0.05 )  Deviation = 0.000334369 Body force = (-0.00010863 , -0.324882 , -0) 
 At (1.475 , 0.375 , 0.05 )  Deviation = 0.000252905 Body force = (-6.21483e-05 , -0.245737 , -0) 
 At (1.525 , 0.375 , 0.05 )  Deviation = -1.74819 Body force = (0 , 0 , 0) 
 At (1.575 , 0.375 , 0.05 )  Deviation = 0 Body force = (0 , 0 , 0) 
 At (1.625 , 0.375 , 0.05 )  Deviation = 9.99968 Body force = (0 , 0 , 0) 
 At (1.675 , 0.375 , 0.05 )  Deviation = -1.75195 Body force = (0 , 0 , 0) 
 At (1.725 , 0.375 , 0.05 )  Deviation = 0 Body force = (0 , 0 , 0) 
 At (1.775 , 0.375 , 0.05 )  Deviation = 9.99979 Body force = (0 , 0 , 0) 
 At (1.825 , 0.375 , 0.05 )  Deviation = -1.75474 Body force = (0 , 0 , 0) 
 At (1.875 , 0.375 , 0.05 )  Deviation = 0 Body force = (0 , 0 , 0) 
 At (1.925 , 0.375 , 0.05 )  Deviation = 9.99987 Body force = (0 , 0 , 0) 
 At (1.975 , 0.375 , 0.05 )  Deviation = -1.75683 Body force = (0 , 0 , 0) 
 At (0.025 , 0.425 , 0.05 )  Deviation = 0 Body force = (0 , 0 , 0) 
 At (0.075 , 0.425 , 0.05 )  Deviation = 9.99992 Body force = (0 , 0 , 0) 
 At (0.125 , 0.425 , 0.05 )  Deviation = -1.7584 Body force = (0 , 0 , 0) 
 At (0.175 , 0.425 , 0.05 )  Deviation = 0 Body force = (0 , 0 , 0) 
 At (0.225 , 0.425 , 0.05 )  Deviation = 9.99995 Body force = (0 , 0 , 0) 
 At (0.275 , 0.425 , 0.05 )  Deviation = -1.75958 Body force = (0 , 0 , 0) 
 At (0.325 , 0.425 , 0.05 )  Deviation = 0 Body force = (0 , 0 , 0) 
 At (0.375 , 0.425 , 0.05 )  Deviation = 9.99997 Body force = (0 , 0 , 0) 
 At (0.425 , 0.425 , 0.05 )  Deviation = -1.76047 Body force = (0 , 0 , 0) 
 At (0.475 , 0.425 , 0.05 )  Deviation = 0 Body force = (0 , 0 , 0) 
 At (0.525 , 0.425 , 0.05 )  Deviation = 0.118704 Body force = (-13.2243 , -110.882 , -0) 
 At (0.575 , 0.425 , 0.05 )  Deviation = 0.0806518 Body force = (-6.15307 , -76.1263 , -0) 
 At (0.625 , 0.425 , 0.05 )  Deviation = 0.0549207 Body force = (-2.87405 , -52.2782 , -0) 
 At (0.675 , 0.425 , 0.05 )  Deviation = 0.0375606 Body force = (-1.3513 , -35.9596 , -0) 
 At (0.725 , 0.425 , 0.05 )  Deviation = 0.0258663 Body force = (-0.64334 , -24.8662 , -0) 
 At (0.775 , 0.425 , 0.05 )  Deviation = 0.0179757 Body force = (-0.311626 , -17.3341 , -0) 
 At (0.825 , 0.425 , 0.05 )  Deviation = 0.0126201 Body force = (-0.153936 , -12.197 , -0) 
 At (0.875 , 0.425 , 0.05 )  Deviation = 0.00895388 Body force = (-0.0776093 , -8.66744 , -0) 
 At (0.925 , 0.425 , 0.05 )  Deviation = 0.00641925 Body force = (-0.0399331 , -6.22076 , -0) 
 At (0.975 , 0.425 , 0.05 )  Deviation = 0.00464793 Body force = (-0.0209518 , -4.50773 , -0) 
 At (1.025 , 0.425 , 0.05 )  Deviation = 0.00339593 Body force = (-0.0111907 , -3.29531 , -0) 
 At (1.075 , 0.425 , 0.05 )  Deviation = 0.00250089 Body force = (-0.00607151 , -2.42774 , -0) 
 At (1.125 , 0.425 , 0.05 )  Deviation = 0.00185415 Body force = (-0.00333823 , -1.80041 , -0) 
 At (1.175 , 0.425 , 0.05 )  Deviation = 0.00138229 Body force = (-0.00185574 , -1.3425 , -0) 
 At (1.225 , 0.425 , 0.05 )  Deviation = 0.00103511 Body force = (-0.00104076 , -1.00546 , -0) 
 At (1.275 , 0.425 , 0.05 )  Deviation = 0.000777826 Body force = (-0.000587744 , -0.755624 , -0) 
 At (1.325 , 0.425 , 0.05 )  Deviation = 0.00058603 Body force = (-0.000333654 , -0.569346 , -0) 
 At (1.375 , 0.425 , 0.05 )  Deviation = 0.000442366 Body force = (-0.000190127 , -0.429796 , -0) 
 At (1.425 , 0.425 , 0.05 )  Deviation = 0.000334324 Body force = (-0.000108601 , -0.324838 , -0) 
 At (1.475 , 0.425 , 0.05 )  Deviation = 0.000252862 Body force = (-6.21268e-05 , -0.245695 , -0) 
 At (1.525 , 0.425 , 0.05 )  Deviation = 0 Body force = (0 , 0 , 0) 
 At (1.575 , 0.425 , 0.05 )  Deviation = 10 Body force = (0 , 0 , 0) 
 At (1.625 , 0.425 , 0.05 )  Deviation = -1.75575 Body force = (0 , 0 , 0) 
 At (1.675 , 0.425 , 0.05 )  Deviation = 0 Body force = (0 , 0 , 0) 
 At (1.725 , 0.425 , 0.05 )  Deviation = 10 Body force = (0 , 0 , 0) 
 At (1.775 , 0.425 , 0.05 )  Deviation = -1.7557 Body force = (0 , 0 , 0) 
 At (1.825 , 0.425 , 0.05 )  Deviation = 0 Body force = (0 , 0 , 0) 
 At (1.875 , 0.425 , 0.05 )  Deviation = 10 Body force = (0 , 0 , 0) 
 At (1.925 , 0.425 , 0.05 )  Deviation = -1.75568 Body force = (0 , 0 , 0) 
 At (1.975 , 0.425 , 0.05 )  Deviation = 0 Body force = (0 , 0 , 0) 
 At (0.025 , 0.475 , 0.05 )  Deviation = 10 Body force = (0 , 0 , 0) 
 At (0.075 , 0.475 , 0.05 )  Deviation = -5.16353e-10 Body force = (0 , 0 , 0) 
 At (0.125 , 0.475 , 0.05 )  Deviation = 0 Body force = (0 , 0 , 0) 
 At (0.175 , 0.475 , 0.05 )  Deviation = 10 Body force = (0 , 0 , 0) 
 At (0.225 , 0.475 , 0.05 )  Deviation = -1.07028e-09 Body force = (0 , 0 , 0) 
 At (0.275 , 0.475 , 0.05 )  Deviation = 0 Body force = (0 , 0 , 0) 
 At (0.325 , 0.475 , 0.05 )  Deviation = 10 Body force = (0 , 0 , 0) 
 At (0.375 , 0.475 , 0.05 )  Deviation = -1.51961e-09 Body force = (0 , 0 , 0) 
 At (0.425 , 0.475 , 0.05 )  Deviation = 0 Body force = (0 , 0 , 0) 
 At (0.475 , 0.475 , 0.05 )  Deviation = 10 Body force = (0 , 0 , 0) 
 At (0.525 , 0.475 , 0.05 )  Deviation = 0.118704 Body force = (-13.2243 , -110.882 , -0) 
 At (0.575 , 0.475 , 0.05 )  Deviation = 0.0806519 Body force = (-6.15308 , -76.1264 , -0) 
 At (0.625 , 0.475 , 0.05 )  Deviation = 0.0549208 Body force = (-2.87406 , -52.2783 , -0) 
 At (0.675 , 0.475 , 0.05 )  Deviation = 0.0375606 Body force = (-1.3513 , -35.9597 , -0) 
 At (0.725 , 0.475 , 0.05 )  Deviation = 0.0258663 Body force = (-0.643342 , -24.8663 , -0) 
 At (0.775 , 0.475 , 0.05 )  Deviation = 0.0179757 Body force = (-0.311627 , -17.3341 , -0) 
 At (0.825 , 0.475 , 0.05 )  Deviation = 0.0126201 Body force = (-0.153937 , -12.1971 , -0) 
 At (0.875 , 0.475 , 0.05 )  Deviation = 0.00895389 Body force = (-0.0776094 , -8.66745 , -0) 
 At (0.925 , 0.475 , 0.05 )  Deviation = 0.00641924 Body force = (-0.0399331 , -6.22076 , -0) 
 At (0.975 , 0.475 , 0.05 )  Deviation = 0.00464792 Body force = (-0.0209517 , -4.50772 , -0) 
 At (1.025 , 0.475 , 0.05 )  Deviation = 0.00339591 Body force = (-0.0111905 , -3.29528 , -0) 
 At (1.075 , 0.475 , 0.05 )  Deviation = 0.00250086 Body force = (-0.00607138 , -2.42771 , -0) 
 At (1.125 , 0.475 , 0.05 )  Deviation = 0.00185411 Body force = (-0.00333811 , -1.80038 , -0) 
 At (1.175 , 0.475 , 0.05 )  Deviation = 0.00138226 Body force = (-0.00185563 , -1.34247 , -0) 
 At (1.225 , 0.475 , 0.05 )  Deviation = 0.00103507 Body force = (-0.00104068 , -1.00542 , -0) 
 At (1.275 , 0.475 , 0.05 )  Deviation = 0.000777781 Body force = (-0.000587676 , -0.755581 , -0) 
 At (1.325 , 0.475 , 0.05 )  Deviation = 0.000585983 Body force = (-0.000333601 , -0.569301 , -0) 
 At (1.375 , 0.475 , 0.05 )  Deviation = 0.000442319 Body force = (-0.000190087 , -0.429751 , -0) 
 At (1.425 , 0.475 , 0.05 )  Deviation = 0.000334277 Body force = (-0.000108571 , -0.324793 , -0) 
 At (1.475 , 0.475 , 0.05 )  Deviation = 0.000252815 Body force = (-6.2104e-05 , -0.24565 , -0) 
 At (1.525 , 0.475 , 0.05 )  Deviation = 9.97051 Body force = (0 , 0 , 0) 
 At (1.575 , 0.475 , 0.05 )  Deviation = -0.557368 Body force = (0 , 0 , 0) 
 At (1.625 , 0.475 , 0.05 )  Deviation = 0 Body force = (0 , 0 , 0) 
 At (1.675 , 0.475 , 0.05 )  Deviation = 9.97311 Body force = (0 , 0 , 0) 
 At (1.725 , 0.475 , 0.05 )  Deviation = -0.939094 Body force = (0 , 0 , 0) 
 At (1.775 , 0.475 , 0.05 )  Deviation = 0 Body force = (0 , 0 , 0) 
 At (1.825 , 0.475 , 0.05 )  Deviation = 9.97918 Body force = (0 , 0 , 0) 
 At (1.875 , 0.475 , 0.05 )  Deviation = -1.19886 Body force = (0 , 0 , 0) 
 At (1.925 , 0.475 , 0.05 )  Deviation = 0 Body force = (0 , 0 , 0) 
 At (1.975 , 0.475 , 0.05 )  Deviation = 9.98255 Body force = (0 , 0 , 0) 
 At (0.025 , 0.525 , 0.05 )  Deviation = -1.37477 Body force = (0 , 0 , 0) 
 At (0.075 , 0.525 , 0.05 )  Deviation = 0 Body force = (0 , 0 , 0) 
 At (0.125 , 0.525 , 0.05 )  Deviation = 9.9857 Body force = (0 , 0 , 0) 
 At (0.175 , 0.525 , 0.05 )  Deviation = -1.49384 Body force = (0 , 0 , 0) 
 At (0.225 , 0.525 , 0.05 )  Deviation = 0 Body force = (0 , 0 , 0) 
 At (0.275 , 0.525 , 0.05 )  Deviation = 9.98917 Body force = (0 , 0 , 0) 
 At (0.325 , 0.525 , 0.05 )  Deviation = -1.57473 Body force = (0 , 0 , 0) 
 At (0.375 , 0.525 , 0.05 )  Deviation = 0 Body force = (0 , 0 , 0) 
 At (0.425 , 0.525 , 0.05 )  Deviation = 9.99227 Body force = (0 , 0 , 0) 
 At (0.475 , 0.525 , 0.05 )  Deviation = -1.63003 Body force = (0 , 0 , 0) 
 At (0.525 , 0.525 , 0.05 )  Deviation = 0.118704 Body force = (-13.2244 , -110.882 , -0) 
 At (0.575 , 0.525 , 0.05 )  Deviation = 0.080652 Body force = (-6.15309 , -76.1264 , -0) 
 At (0.625 , 0.525 , 0.05 )  Deviation = 0.0549209 Body force = (-2.87406 , -52.2783 , -0) 
 At (0.675 , 0.525 , 0.05 )  Deviation = 0.0375607 Body force = (-1.35131 , -35.9597 , -0) 
 At (0.725 , 0.525 , 0.05 )  Deviation = 0.0258663 Body force = (-0.643344 , -24.8663 , -0) 
 At (0.775 , 0.525 , 0.05 )  Deviation = 0.0179758 Body force = (-0.311628 , -17.3341 , -0) 
 At (0.825 , 0.525 , 0.05 )  Deviation = 0.0126202 Body force = (-0.153937 , -12.1971 , -0) 
 At (0.875 , 0.525 , 0.05 )  Deviation = 0.00895389 Body force = (-0.0776095 , -8.66745 , -0) 
 At (0.925 , 0.525 , 0.05 )  Deviation = 0.00641924 Body force = (-0.0399331 , -6.22076 , -0) 
 At (0.975 , 0.525 , 0.05 )  Deviation = 0.00464791 Body force = (-0.0209515 , -4.5077 , -0) 
 At (1.025 , 0.525 , 0.05 )  Deviation = 0.00339589 Body force = (-0.0111904 , -3.29526 , -0) 
 At (1.075 , 0.525 , 0.05 )  Deviation = 0.00250083 Body force = (-0.00607123 , -2.42768 , -0) 
 At (1.125 , 0.525 , 0.05 )  Deviation = 0.00185408 Body force = (-0.00333798 , -1.80035 , -0) 
 At (1.175 , 0.525 , 0.05 )  Deviation = 0.00138222 Body force = (-0.00185553 , -1.34243 , -0) 
 At (1.225 , 0.525 , 0.05 )  Deviation = 0.00103503 Body force = (-0.00104059 , -1.00538 , -0) 
 At (1.275 , 0.525 , 0.05 )  Deviation = 0.000777735 Body force = (-0.000587607 , -0.755536 , -0) 
 At (1.325 , 0.525 , 0.05 )  Deviation = 0.000585936 Body force = (-0.000333547 , -0.569255 , -0) 
 At (1.375 , 0.525 , 0.05 )  Deviation = 0.00044227 Body force = (-0.000190045 , -0.429703 , -0) 
 At (1.425 , 0.525 , 0.05 )  Deviation = 0.000334229 Body force = (-0.000108539 , -0.324745 , -0) 
 At (1.475 , 0.525 , 0.05 )  Deviation = 0.000252767 Body force = (-6.20805e-05 , -0.245603 , -0) 
 At (1.525 , 0.525 , 0.05 )  Deviation = -1.74819 Body force = (0 , 0 , 0) 
 At (1.575 , 0.525 , 0.05 )  Deviation = 0 Body force = (0 , 0 , 0) 
 At (1.625 , 0.525 , 0.05 )  Deviation = 9.99968 Body force = (0 , 0 , 0) 
 At (1.675 , 0.525 , 0.05 )  Deviation = -1.75195 Body force = (0 , 0 , 0) 
 At (1.725 , 0.525 , 0.05 )  Deviation = 0 Body force = (0 , 0 , 0) 
 At (1.775 , 0.525 , 0.05 )  Deviation = 9.99979 Body force = (0 , 0 , 0) 
 At (1.825 , 0.525 , 0.05 )  Deviation = -1.75474 Body force = (0 , 0 , 0) 
 At (1.875 , 0.525 , 0.05 )  Deviation = 0 Body force = (0 , 0 , 0) 
 At (1.925 , 0.525 , 0.05 )  Deviation = 9.99987 Body force = (0 , 0 , 0) 
 At (1.975 , 0.525 , 0.05 )  Deviation = -1.75683 Body force = (0 , 0 , 0) 
 At (0.025 , 0.575 , 0.05 )  Deviation = 0 Body force = (0 , 0 , 0) 
 At (0.075 , 0.575 , 0.05 )  Deviation = 9.99992 Body force = (0 , 0 , 0) 
 At (0.125 , 0.575 , 0.05 )  Deviation = -1.7584 Body force = (0 , 0 , 0) 
 At (0.175 , 0.575 , 0.05 )  Deviation = 0 Body force = (0 , 0 , 0) 
 At (0.225 , 0.575 , 0.05 )  Deviation = 9.99995 Body force = (0 , 0 , 0) 
 At (0.275 , 0.575 , 0.05 )  Deviation = -1.75958 Body force = (0 , 0 , 0) 
 At (0.325 , 0.575 , 0.05 )  Deviation = 0 Body force = (0 , 0 , 0) 
 At (0.375 , 0.575 , 0.05 )  Deviation = 9.99997 Body force = (0 , 0 , 0) 
 At (0.425 , 0.575 , 0.05 )  Deviation = -1.76047 Body force = (0 , 0 , 0) 
 At (0.475 , 0.575 , 0.05 )  Deviation = 0 Body force = (0 , 0 , 0) 
 At (0.525 , 0.575 , 0.05 )  Deviation = 0.118704 Body force = (-13.2244 , -110.882 , -0) 
 At (0.575 , 0.575 , 0.05 )  Deviation = 0.080652 Body force = (-6.15311 , -76.1265 , -0) 
 At (0.625 , 0.575 , 0.05 )  Deviation = 0.0549209 Body force = (-2.87407 , -52.2784 , -0) 
 At (0.675 , 0.575 , 0.05 )  Deviation = 0.0375607 Body force = (-1.35131 , -35.9598 , -0) 
 At (0.725 , 0.575 , 0.05 )  Deviation = 0.0258664 Body force = (-0.643346 , -24.8664 , -0) 
 At (0.775 , 0.575 , 0.05 )  Deviation = 0.0179758 Body force = (-0.311629 , -17.3342 , -0) 
 At (0.825 , 0.575 , 0.05 )  Deviation = 0.0126202 Body force = (-0.153938 , -12.1971 , -0) 
 At (0.875 , 0.575 , 0.05 )  Deviation = 0.0089539 Body force = (-0.0776096 , -8.66746 , -0) 
 At (0.925 , 0.575 , 0.05 )  Deviation = 0.00641923 Body force = (-0.039933 , -6.22075 , -0) 
 At (0.975 , 0.575 , 0.05 )  Deviation = 0.00464789 Body force = (-0.0209514 , -4.50769 , -0) 
 At (1.025 , 0.575 , 0.05 )  Deviation = 0.00339586 Body force = (-0.0111902 , -3.29524 , -0) 
 At (1.075 , 0.575 , 0.05 )  Deviation = 0.0025008 Body force = (-0.00607109 , -2.42765 , -0) 
 At (1.125 , 0.575 , 0.05 )  Deviation = 0.00185404 Body force = (-0.00333786 , -1.80031 , -0) 
 At (1.175 , 0.575 , 0.05 )  Deviation = 0.00138218 Body force = (-0.00185542 , -1.34239 , -0) 
 At (1.225 , 0.575 , 0.05 )  Deviation = 0.00103498 Body force = (-0.00104051 , -1.00534 , -0) 
 At (1.275 , 0.575 , 0.05 )  Deviation = 0.000777691 Body force = (-0.00058754 , -0.755493 , -0) 
 At (1.325 , 0.575 , 0.05 )  Deviation = 0.00058589 Body force = (-0.000333494 , -0.56921 , -0) 
 At (1.375 , 0.575 , 0.05 )  Deviation = 0.000442223 Body force = (-0.000190005 , -0.429658 , -0) 
 At (1.425 , 0.575 , 0.05 )  Deviation = 0.000334182 Body force = (-0.000108509 , -0.3247 , -0) 
 At (1.475 , 0.575 , 0.05 )  Deviation = 0.000252721 Body force = (-6.20578e-05 , -0.245558 , -0) 
 At (1.525 , 0.575 , 0.05 )  Deviation = 0 Body force = (0 , 0 , 0) 
 At (1.575 , 0.575 , 0.05 )  Deviation = 10 Body force = (0 , 0 , 0) 
 At (1.625 , 0.575 , 0.05 )  Deviation = -1.75575 Body force = (0 , 0 , 0) 
 At (1.675 , 0.575 , 0.05 )  Deviation = 0 Body force = (0 , 0 , 0) 
 At (1.725 , 0.575 , 0.05 )  Deviation = 10 Body force = (0 , 0 , 0) 
 At (1.775 , 0.575 , 0.05 )  Deviation = -1.7557 Body force = (0 , 0 , 0) 
 At (1.825 , 0.575 , 0.05 )  Deviation = 0 Body force = (0 , 0 , 0) 
 At (1.875 , 0.575 , 0.05 )  Deviation = 10 Body force = (0 , 0 , 0) 
 At (1.925 , 0.575 , 0.05 )  Deviation = -1.75568 Body force = (0 , 0 , 0) 
 At (1.975 , 0.575 , 0.05 )  Deviation = 0 Body force = (0 , 0 , 0) 
 At (0.025 , 0.625 , 0.05 )  Deviation = 10 Body force = (0 , 0 , 0) 
 At (0.075 , 0.625 , 0.05 )  Deviation = -5.2621e-10 Body force = (0 , 0 , 0) 
 At (0.125 , 0.625 , 0.05 )  Deviation = 0 Body force = (0 , 0 , 0) 
 At (0.175 , 0.625 , 0.05 )  Deviation = 10 Body force = (0 , 0 , 0) 
 At (0.225 , 0.625 , 0.05 )  Deviation = -1.11337e-09 Body force = (0 , 0 , 0) 
 At (0.275 , 0.625 , 0.05 )  Deviation = 0 Body force = (0 , 0 , 0) 
 At (0.325 , 0.625 , 0.05 )  Deviation = 10 Body force = (0 , 0 , 0) 
 At (0.375 , 0.625 , 0.05 )  Deviation = -1.59131e-09 Body force = (0 , 0 , 0) 
 At (0.425 , 0.625 , 0.05 )  Deviation = 0 Body force = (0 , 0 , 0) 
 At (0.475 , 0.625 , 0.05 )  Deviation = 10 Body force = (0 , 0 , 0) 
 At (0.525 , 0.625 , 0.05 )  Deviation = 0.118704 Body force = (-13.2244 , -110.882 , -0) 
 At (0.575 , 0.625 , 0.05 )  Deviation = 0.0806521 Body force = (-6.15312 , -76.1266 , -0) 
 At (0.625 , 0.625 , 0.05 )  Deviation = 0.054921 Body force = (-2.87408 , -52.2785 , -0) 
 At (0.675 , 0.625 , 0.05 )  Deviation = 0.0375608 Body force = (-1.35132 , -35.9598 , -0) 
 At (0.725 , 0.625 , 0.05 )  Deviation = 0.0258664 Body force = (-0.643349 , -24.8664 , -0) 
 At (0.775 , 0.625 , 0.05 )  Deviation = 0.0179758 Body force = (-0.311631 , -17.3342 , -0) 
 At (0.825 , 0.625 , 0.05 )  Deviation = 0.0126202 Body force = (-0.153938 , -12.1971 , -0) 
 At (0.875 , 0.625 , 0.05 )  Deviation = 0.00895391 Body force = (-0.0776098 , -8.66747 , -0) 
 At (0.925 , 0.625 , 0.05 )  Deviation = 0.00641923 Body force = (-0.039933 , -6.22075 , -0) 
 At (0.975 , 0.625 , 0.05 )  Deviation = 0.00464788 Body force = (-0.0209513 , -4.50767 , -0) 
 At (1.025 , 0.625 , 0.05 )  Deviation = 0.00339584 Body force = (-0.0111901 , -3.29522 , -0) 
 At (1.075 , 0.625 , 0.05 )  Deviation = 0.00250078 Body force = (-0.00607096 , -2.42763 , -0) 
 At (1.125 , 0.625 , 0.05 )  Deviation = 0.00185401 Body force = (-0.00333775 , -1.80028 , -0) 
 At (1.175 , 0.625 , 0.05 )  Deviation = 0.00138214 Body force = (-0.00185533 , -1.34236 , -0) 
 At (1.225 , 0.625 , 0.05 )  Deviation = 0.00103495 Body force = (-0.00104044 , -1.0053 , -0) 
 At (1.275 , 0.625 , 0.05 )  Deviation = 0.000777653 Body force = (-0.000587483 , -0.755456 , -0) 
 At (1.325 , 0.625 , 0.05 )  Deviation = 0.00058585 Body force = (-0.000333449 , -0.569172 , -0) 
 At (1.375 , 0.625 , 0.05 )  Deviation = 0.000442183 Body force = (-0.00018997 , -0.429618 , -0) 
 At (1.425 , 0.625 , 0.05 )  Deviation = 0.00033414 Body force = (-0.000108482 , -0.32466 , -0) 
 At (1.475 , 0.625 , 0.05 )  Deviation = 0.00025268 Body force = (-6.20377e-05 , -0.245519 , -0) 
 At (1.525 , 0.625 , 0.05 )  Deviation = 9.97051 Body force = (0 , 0 , 0) 
 At (1.575 , 0.625 , 0.05 )  Deviation = -0.557368 Body force = (0 , 0 , 0) 
 At (1.625 , 0.625 , 0.05 )  Deviation = 0 Body force = (0 , 0 , 0) 
 At (1.675 , 0.625 , 0.05 )  Deviation = 9.97311 Body force = (0 , 0 , 0) 
 At (1.725 , 0.625 , 0.05 )  Deviation = -0.939094 Body force = (0 , 0 , 0) 
 At (1.775 , 0.625 , 0.05 )  Deviation = 0 Body force = (0 , 0 , 0) 
 At (1.825 , 0.625 , 0.05 )  Deviation = 9.97918 Body force = (0 , 0 , 0) 
 At (1.875 , 0.625 , 0.05 )  Deviation = -1.19886 Body force = (0 , 0 , 0) 
 At (1.925 , 0.625 , 0.05 )  Deviation = 0 Body force = (0 , 0 , 0) 
 At (1.975 , 0.625 , 0.05 )  Deviation = 9.98255 Body force = (0 , 0 , 0) 
 At (0.025 , 0.675 , 0.05 )  Deviation = -1.37477 Body force = (0 , 0 , 0) 
 At (0.075 , 0.675 , 0.05 )  Deviation = 0 Body force = (0 , 0 , 0) 
 At (0.125 , 0.675 , 0.05 )  Deviation = 9.9857 Body force = (0 , 0 , 0) 
 At (0.175 , 0.675 , 0.05 )  Deviation = -1.49384 Body force = (0 , 0 , 0) 
 At (0.225 , 0.675 , 0.05 )  Deviation = 0 Body force = (0 , 0 , 0) 
 At (0.275 , 0.675 , 0.05 )  Deviation = 9.98917 Body force = (0 , 0 , 0) 
 At (0.325 , 0.675 , 0.05 )  Deviation = -1.57473 Body force = (0 , 0 , 0) 
 At (0.375 , 0.675 , 0.05 )  Deviation = 0 Body force = (0 , 0 , 0) 
 At (0.425 , 0.675 , 0.05 )  Deviation = 9.99227 Body force = (0 , 0 , 0) 
 At (0.475 , 0.675 , 0.05 )  Deviation = -1.63003 Body force = (0 , 0 , 0) 
 At (0.525 , 0.675 , 0.05 )  Deviation = 0.118705 Body force = (-13.2244 , -110.882 , -0) 
 At (0.575 , 0.675 , 0.05 )  Deviation = 0.0806522 Body force = (-6.15313 , -76.1266 , -0) 
 At (0.625 , 0.675 , 0.05 )  Deviation = 0.0549211 Body force = (-2.87408 , -52.2785 , -0) 
 At (0.675 , 0.675 , 0.05 )  Deviation = 0.0375609 Body force = (-1.35132 , -35.9599 , -0) 
 At (0.725 , 0.675 , 0.05 )  Deviation = 0.0258665 Body force = (-0.643351 , -24.8665 , -0) 
 At (0.775 , 0.675 , 0.05 )  Deviation = 0.0179759 Body force = (-0.311632 , -17.3342 , -0) 
 At (0.825 , 0.675 , 0.05 )  Deviation = 0.0126202 Body force = (-0.153939 , -12.1971 , -0) 
 At (0.875 , 0.675 , 0.05 )  Deviation = 0.00895392 Body force = (-0.07761 , -8.66748 , -0) 
 At (0.925 , 0.675 , 0.05 )  Deviation = 0.00641923 Body force = (-0.039933 , -6.22075 , -0) 
 At (0.975 , 0.675 , 0.05 )  Deviation = 0.00464787 Body force = (-0.0209512 , -4.50767 , -0) 
 At (1.025 , 0.675 , 0.05 )  Deviation = 0.00339583 Body force = (-0.01119 , -3.29521 , -0) 
 At (1.075 , 0.675 , 0.05 )  Deviation = 0.00250076 Body force = (-0.00607088 , -2.42761 , -0) 
 At (1.125 , 0.675 , 0.05 )  Deviation = 0.00185399 Body force = (-0.00333768 , -1.80026 , -0) 
 At (1.175 , 0.675 , 0.05 )  Deviation = 0.00138212 Body force = (-0.00185527 , -1.34234 , -0) 
 At (1.225 , 0.675 , 0.05 )  Deviation = 0.00103492 Body force = (-0.00104038 , -1.00528 , -0) 
 At (1.275 , 0.675 , 0.05 )  Deviation = 0.000777626 Body force = (-0.000587441 , -0.755429 , -0) 
 At (1.325 , 0.675 , 0.05 )  Deviation = 0.000585821 Body force = (-0.000333416 , -0.569143 , -0) 
 At (1.375 , 0.675 , 0.05 )  Deviation = 0.000442152 Body force = (-0.000189944 , -0.429589 , -0) 
 At (1.425 , 0.675 , 0.05 )  Deviation = 0.000334109 Body force = (-0.000108461 , -0.324629 , -0) 
 At (1.475 , 0.675 , 0.05 )  Deviation = 0.000252648 Body force = (-6.2022e-05 , -0.245488 , -0) 
 At (1.525 , 0.675 , 0.05 )  Deviation = -1.74819 Body force = (0 , 0 , 0) 
 At (1.575 , 0.675 , 0.05 )  Deviation = 0 Body force = (0 , 0 , 0) 
 At (1.625 , 0.675 , 0.05 )  Deviation = 9.99968 Body force = (0 , 0 , 0) 
 At (1.675 , 0.675 , 0.05 )  Deviation = -1.75195 Body force = (0 , 0 , 0) 
 At (1.725 , 0.675 , 0.05 )  Deviation = 0 Body force = (0 , 0 , 0) 
 At (1.775 , 0.675 , 0.05 )  Deviation = 9.99979 Body force = (0 , 0 , 0) 
 At (1.825 , 0.675 , 0.05 )  Deviation = -1.75474 Body force = (0 , 0 , 0) 
 At (1.875 , 0.675 , 0.05 )  Deviation = 0 Body force = (0 , 0 , 0) 
 At (1.925 , 0.675 , 0.05 )  Deviation = 9.99987 Body force = (0 , 0 , 0) 
 At (1.975 , 0.675 , 0.05 )  Deviation = -1.75683 Body force = (0 , 0 , 0) 
 At (0.025 , 0.725 , 0.05 )  Deviation = 0 Body force = (0 , 0 , 0) 
 At (0.075 , 0.725 , 0.05 )  Deviation = 9.99992 Body force = (0 , 0 , 0) 
 At (0.125 , 0.725 , 0.05 )  Deviation = -1.7584 Body force = (0 , 0 , 0) 
 At (0.175 , 0.725 , 0.05 )  Deviation = 0 Body force = (0 , 0 , 0) 
 At (0.225 , 0.725 , 0.05 )  Deviation = 9.99995 Body force = (0 , 0 , 0) 
 At (0.275 , 0.725 , 0.05 )  Deviation = -1.75958 Body force = (0 , 0 , 0) 
 At (0.325 , 0.725 , 0.05 )  Deviation = 0 Body force = (0 , 0 , 0) 
 At (0.375 , 0.725 , 0.05 )  Deviation = 9.99997 Body force = (0 , 0 , 0) 
 At (0.425 , 0.725 , 0.05 )  Deviation = -1.76047 Body force = (0 , 0 , 0) 
 At (0.475 , 0.725 , 0.05 )  Deviation = 0 Body force = (0 , 0 , 0) 
 At (0.525 , 0.725 , 0.05 )  Deviation = 0.118705 Body force = (-13.2244 , -110.882 , -0) 
 At (0.575 , 0.725 , 0.05 )  Deviation = 0.0806522 Body force = (-6.15314 , -76.1267 , -0) 
 At (0.625 , 0.725 , 0.05 )  Deviation = 0.0549211 Body force = (-2.87409 , -52.2786 , -0) 
 At (0.675 , 0.725 , 0.05 )  Deviation = 0.0375609 Body force = (-1.35132 , -35.9599 , -0) 
 At (0.725 , 0.725 , 0.05 )  Deviation = 0.0258665 Body force = (-0.643354 , -24.8665 , -0) 
 At (0.775 , 0.725 , 0.05 )  Deviation = 0.0179759 Body force = (-0.311634 , -17.3343 , -0) 
 At (0.825 , 0.725 , 0.05 )  Deviation = 0.0126203 Body force = (-0.15394 , -12.1972 , -0) 
 At (0.875 , 0.725 , 0.05 )  Deviation = 0.00895394 Body force = (-0.0776104 , -8.6675 , -0) 
 At (0.925 , 0.725 , 0.05 )  Deviation = 0.00641924 Body force = (-0.0399331 , -6.22075 , -0) 
 At (0.975 , 0.725 , 0.05 )  Deviation = 0.00464787 Body force = (-0.0209512 , -4.50767 , -0) 
 At (1.025 , 0.725 , 0.05 )  Deviation = 0.00339582 Body force = (-0.01119 , -3.2952 , -0) 
 At (1.075 , 0.725 , 0.05 )  Deviation = 0.00250075 Body force = (-0.00607084 , -2.4276 , -0) 
 At (1.125 , 0.725 , 0.05 )  Deviation = 0.00185398 Body force = (-0.00333763 , -1.80025 , -0) 
 At (1.175 , 0.725 , 0.05 )  Deviation = 0.00138211 Body force = (-0.00185524 , -1.34232 , -0) 
 At (1.225 , 0.725 , 0.05 )  Deviation = 0.00103491 Body force = (-0.00104035 , -1.00526 , -0) 
 At (1.275 , 0.725 , 0.05 )  Deviation = 0.00077761 Body force = (-0.000587417 , -0.755414 , -0) 
 At (1.325 , 0.725 , 0.05 )  Deviation = 0.000585803 Body force = (-0.000333395 , -0.569126 , -0) 
 At (1.375 , 0.725 , 0.05 )  Deviation = 0.000442133 Body force = (-0.000189927 , -0.42957 , -0) 
 At (1.425 , 0.725 , 0.05 )  Deviation = 0.000334088 Body force = (-0.000108448 , -0.324609 , -0) 
 At (1.475 , 0.725 , 0.05 )  Deviation = 0.000252627 Body force = (-6.20114e-05 , -0.245466 , -0) 
 At (1.525 , 0.725 , 0.05 )  Deviation = 0 Body force = (0 , 0 , 0) 
 At (1.575 , 0.725 , 0.05 )  Deviation = 10 Body force = (0 , 0 , 0) 
 At (1.625 , 0.725 , 0.05 )  Deviation = -1.75575 Body force = (0 , 0 , 0) 
 At (1.675 , 0.725 , 0.05 )  Deviation = 0 Body force = (0 , 0 , 0) 
 At (1.725 , 0.725 , 0.05 )  Deviation = 10 Body force = (0 , 0 , 0) 
 At (1.775 , 0.725 , 0.05 )  Deviation = -1.7557 Body force = (0 , 0 , 0) 
 At (1.825 , 0.725 , 0.05 )  Deviation = 0 Body force = (0 , 0 , 0) 
 At (1.875 , 0.725 , 0.05 )  Deviation = 10 Body force = (0 , 0 , 0) 
 At (1.925 , 0.725 , 0.05 )  Deviation = -1.75568 Body force = (0 , 0 , 0) 
 At (1.975 , 0.725 , 0.05 )  Deviation = 0 Body force = (0 , 0 , 0) 
 At (0.025 , 0.775 , 0.05 )  Deviation = 10 Body force = (0 , 0 , 0) 
 At (0.075 , 0.775 , 0.05 )  Deviation = -4.97237e-10 Body force = (0 , 0 , 0) 
 At (0.125 , 0.775 , 0.05 )  Deviation = 0 Body force = (0 , 0 , 0) 
 At (0.175 , 0.775 , 0.05 )  Deviation = 10 Body force = (0 , 0 , 0) 
 At (0.225 , 0.775 , 0.05 )  Deviation = -1.07171e-09 Body force = (0 , 0 , 0) 
 At (0.275 , 0.775 , 0.05 )  Deviation = 0 Body force = (0 , 0 , 0) 
 At (0.325 , 0.775 , 0.05 )  Deviation = 10 Body force = (0 , 0 , 0) 
 At (0.375 , 0.775 , 0.05 )  Deviation = -1.55052e-09 Body force = (0 , 0 , 0) 
 At (0.425 , 0.775 , 0.05 )  Deviation = 0 Body force = (0 , 0 , 0) 
 At (0.475 , 0.775 , 0.05 )  Deviation = 10 Body force = (0 , 0 , 0) 
 At (0.525 , 0.775 , 0.05 )  Deviation = 0.118705 Body force = (-13.2244 , -110.882 , -0) 
 At (0.575 , 0.775 , 0.05 )  Deviation = 0.0806522 Body force = (-6.15313 , -76.1267 , -0) 
 At (0.625 , 0.775 , 0.05 )  Deviation = 0.0549212 Body force = (-2.87409 , -52.2786 , -0) 
 At (0.675 , 0.775 , 0.05 )  Deviation = 0.037561 Body force = (-1.35133 , -35.96 , -0) 
 At (0.725 , 0.775 , 0.05 )  Deviation = 0.0258666 Body force = (-0.643358 , -24.8666 , -0) 
 At (0.775 , 0.775 , 0.05 )  Deviation = 0.017976 Body force = (-0.311636 , -17.3344 , -0) 
 At (0.825 , 0.775 , 0.05 )  Deviation = 0.0126203 Body force = (-0.153942 , -12.1972 , -0) 
 At (0.875 , 0.775 , 0.05 )  Deviation = 0.00895399 Body force = (-0.0776112 , -8.66754 , -0) 
 At (0.925 , 0.775 , 0.05 )  Deviation = 0.00641928 Body force = (-0.0399335 , -6.22079 , -0) 
 At (0.975 , 0.775 , 0.05 )  Deviation = 0.00464789 Body force = (-0.0209513 , -4.50768 , -0) 
 At (1.025 , 0.775 , 0.05 )  Deviation = 0.00339583 Body force = (-0.01119 , -3.29521 , -0) 
 At (1.075 , 0.775 , 0.05 )  Deviation = 0.00250075 Body force = (-0.00607081 , -2.4276 , -0) 
 At (1.125 , 0.775 , 0.05 )  Deviation = 0.00185397 Body force = (-0.00333761 , -1.80025 , -0) 
 At (1.175 , 0.775 , 0.05 )  Deviation = 0.0013821 Body force = (-0.00185521 , -1.34231 , -0) 
 At (1.225 , 0.775 , 0.05 )  Deviation = 0.0010349 Body force = (-0.00104033 , -1.00525 , -0) 
 At (1.275 , 0.775 , 0.05 )  Deviation = 0.000777595 Body force = (-0.000587396 , -0.7554 , -0) 
 At (1.325 , 0.775 , 0.05 )  Deviation = 0.000585789 Body force = (-0.00033338 , -0.569112 , -0) 
 At (1.375 , 0.775 , 0.05 )  Deviation = 0.000442116 Body force = (-0.000189913 , -0.429554 , -0) 
 At (1.425 , 0.775 , 0.05 )  Deviation = 0.000334072 Body force = (-0.000108437 , -0.324593 , -0) 
 At (1.475 , 0.775 , 0.05 )  Deviation = 0.000252609 Body force = (-6.20028e-05 , -0.245449 , -0) 
 At (1.525 , 0.775 , 0.05 )  Deviation = 9.97051 Body force = (0 , 0 , 0) 
 At (1.575 , 0.775 , 0.05 )  Deviation = -0.557368 Body force = (0 , 0 , 0) 
 At (1.625 , 0.775 , 0.05 )  Deviation = 0 Body force = (0 , 0 , 0) 
 At (1.675 , 0.775 , 0.05 )  Deviation = 9.97311 Body force = (0 , 0 , 0) 
 At (1.725 , 0.775 , 0.05 )  Deviation = -0.939094 Body force = (0 , 0 , 0) 
 At (1.775 , 0.775 , 0.05 )  Deviation = 0 Body force = (0 , 0 , 0) 
 At (1.825 , 0.775 , 0.05 )  Deviation = 9.97918 Body force = (0 , 0 , 0) 
 At (1.875 , 0.775 , 0.05 )  Deviation = -1.19886 Body force = (0 , 0 , 0) 
 At (1.925 , 0.775 , 0.05 )  Deviation = 0 Body force = (0 , 0 , 0) 
 At (1.975 , 0.775 , 0.05 )  Deviation = 9.98255 Body force = (0 , 0 , 0) 
 At (0.025 , 0.825 , 0.05 )  Deviation = -1.37477 Body force = (0 , 0 , 0) 
 At (0.075 , 0.825 , 0.05 )  Deviation = 0 Body force = (0 , 0 , 0) 
 At (0.125 , 0.825 , 0.05 )  Deviation = 9.9857 Body force = (0 , 0 , 0) 
 At (0.175 , 0.825 , 0.05 )  Deviation = -1.49384 Body force = (0 , 0 , 0) 
 At (0.225 , 0.825 , 0.05 )  Deviation = 0 Body force = (0 , 0 , 0) 
 At (0.275 , 0.825 , 0.05 )  Deviation = 9.98917 Body force = (0 , 0 , 0) 
 At (0.325 , 0.825 , 0.05 )  Deviation = -1.57473 Body force = (0 , 0 , 0) 
 At (0.375 , 0.825 , 0.05 )  Deviation = 0 Body force = (0 , 0 , 0) 
 At (0.425 , 0.825 , 0.05 )  Deviation = 9.99227 Body force = (0 , 0 , 0) 
 At (0.475 , 0.825 , 0.05 )  Deviation = -1.63003 Body force = (0 , 0 , 0) 
 At (0.525 , 0.825 , 0.05 )  Deviation = 0.118705 Body force = (-13.2244 , -110.882 , -0) 
 At (0.575 , 0.825 , 0.05 )  Deviation = 0.0806522 Body force = (-6.15312 , -76.1266 , -0) 
 At (0.625 , 0.825 , 0.05 )  Deviation = 0.0549211 Body force = (-2.87409 , -52.2786 , -0) 
 At (0.675 , 0.825 , 0.05 )  Deviation = 0.037561 Body force = (-1.35133 , -35.96 , -0) 
 At (0.725 , 0.825 , 0.05 )  Deviation = 0.0258667 Body force = (-0.643362 , -24.8667 , -0) 
 At (0.775 , 0.825 , 0.05 )  Deviation = 0.0179761 Body force = (-0.31164 , -17.3345 , -0) 
 At (0.825 , 0.825 , 0.05 )  Deviation = 0.0126204 Body force = (-0.153944 , -12.1973 , -0) 
 At (0.875 , 0.825 , 0.05 )  Deviation = 0.00895405 Body force = (-0.0776121 , -8.66759 , -0) 
 At (0.925 , 0.825 , 0.05 )  Deviation = 0.0064193 Body force = (-0.0399338 , -6.22081 , -0) 
 At (0.975 , 0.825 , 0.05 )  Deviation = 0.00464789 Body force = (-0.0209514 , -4.50768 , -0) 
 At (1.025 , 0.825 , 0.05 )  Deviation = 0.00339582 Body force = (-0.0111899 , -3.2952 , -0) 
 At (1.075 , 0.825 , 0.05 )  Deviation = 0.00250072 Body force = (-0.00607069 , -2.42757 , -0) 
 At (1.125 , 0.825 , 0.05 )  Deviation = 0.00185395 Body force = (-0.00333751 , -1.80022 , -0) 
 At (1.175 , 0.825 , 0.05 )  Deviation = 0.00138207 Body force = (-0.00185512 , -1.34228 , -0) 
 At (1.225 , 0.825 , 0.05 )  Deviation = 0.00103487 Body force = (-0.00104027 , -1.00522 , -0) 
 At (1.275 , 0.825 , 0.05 )  Deviation = 0.000777566 Body force = (-0.000587352 , -0.755372 , -0) 
 At (1.325 , 0.825 , 0.05 )  Deviation = 0.000585762 Body force = (-0.000333349 , -0.569086 , -0) 
 At (1.375 , 0.825 , 0.05 )  Deviation = 0.00044209 Body force = (-0.000189891 , -0.429529 , -0) 
 At (1.425 , 0.825 , 0.05 )  Deviation = 0.000334048 Body force = (-0.000108422 , -0.32457 , -0) 
 At (1.475 , 0.825 , 0.05 )  Deviation = 0.000252587 Body force = (-6.19918e-05 , -0.245428 , -0) 
 At (1.525 , 0.825 , 0.05 )  Deviation = -1.74819 Body force = (0 , 0 , 0) 
 At (1.575 , 0.825 , 0.05 )  Deviation = 0 Body force = (0 , 0 , 0) 
 At (1.625 , 0.825 , 0.05 )  Deviation = 9.99968 Body force = (0 , 0 , 0) 
 At (1.675 , 0.825 , 0.05 )  Deviation = -1.75195 Body force = (0 , 0 , 0) 
 At (1.725 , 0.825 , 0.05 )  Deviation = 0 Body force = (0 , 0 , 0) 
 At (1.775 , 0.825 , 0.05 )  Deviation = 9.99979 Body force = (0 , 0 , 0) 
 At (1.825 , 0.825 , 0.05 )  Deviation = -1.75474 Body force = (0 , 0 , 0) 
 At (1.875 , 0.825 , 0.05 )  Deviation = 0 Body force = (0 , 0 , 0) 
 At (1.925 , 0.825 , 0.05 )  Deviation = 9.99987 Body force = (0 , 0 , 0) 
 At (1.975 , 0.825 , 0.05 )  Deviation = -1.75683 Body force = (0 , 0 , 0) 
 At (0.025 , 0.875 , 0.05 )  Deviation = 0 Body force = (0 , 0 , 0) 
 At (0.075 , 0.875 , 0.05 )  Deviation = 9.99992 Body force = (0 , 0 , 0) 
 At (0.125 , 0.875 , 0.05 )  Deviation = -1.7584 Body force = (0 , 0 , 0) 
 At (0.175 , 0.875 , 0.05 )  Deviation = 0 Body force = (0 , 0 , 0) 
 At (0.225 , 0.875 , 0.05 )  Deviation = 9.99995 Body force = (0 , 0 , 0) 
 At (0.275 , 0.875 , 0.05 )  Deviation = -1.75958 Body force = (0 , 0 , 0) 
 At (0.325 , 0.875 , 0.05 )  Deviation = 0 Body force = (0 , 0 , 0) 
 At (0.375 , 0.875 , 0.05 )  Deviation = 9.99997 Body force = (0 , 0 , 0) 
 At (0.425 , 0.875 , 0.05 )  Deviation = -1.76047 Body force = (0 , 0 , 0) 
 At (0.475 , 0.875 , 0.05 )  Deviation = 0 Body force = (0 , 0 , 0) 
 At (0.525 , 0.875 , 0.05 )  Deviation = 0.118705 Body force = (-13.2244 , -110.882 , -0) 
 At (0.575 , 0.875 , 0.05 )  Deviation = 0.0806522 Body force = (-6.15313 , -76.1267 , -0) 
 At (0.625 , 0.875 , 0.05 )  Deviation = 0.0549212 Body force = (-2.87409 , -52.2786 , -0) 
 At (0.675 , 0.875 , 0.05 )  Deviation = 0.0375611 Body force = (-1.35133 , -35.9601 , -0) 
 At (0.725 , 0.875 , 0.05 )  Deviation = 0.0258667 Body force = (-0.643363 , -24.8667 , -0) 
 At (0.775 , 0.875 , 0.05 )  Deviation = 0.0179761 Body force = (-0.311641 , -17.3345 , -0) 
 At (0.825 , 0.875 , 0.05 )  Deviation = 0.0126204 Body force = (-0.153943 , -12.1973 , -0) 
 At (0.875 , 0.875 , 0.05 )  Deviation = 0.00895405 Body force = (-0.0776122 , -8.6676 , -0) 
 At (0.925 , 0.875 , 0.05 )  Deviation = 0.00641927 Body force = (-0.0399334 , -6.22078 , -0) 
 At (0.975 , 0.875 , 0.05 )  Deviation = 0.00464787 Body force = (-0.0209512 , -4.50766 , -0) 
 At (1.025 , 0.875 , 0.05 )  Deviation = 0.00339577 Body force = (-0.0111896 , -3.29515 , -0) 
 At (1.075 , 0.875 , 0.05 )  Deviation = 0.0025007 Body force = (-0.00607057 , -2.42755 , -0) 
 At (1.125 , 0.875 , 0.05 )  Deviation = 0.00185391 Body force = (-0.00333737 , -1.80018 , -0) 
 At (1.175 , 0.875 , 0.05 )  Deviation = 0.00138204 Body force = (-0.00185507 , -1.34226 , -0) 
 At (1.225 , 0.875 , 0.05 )  Deviation = 0.00103484 Body force = (-0.00104021 , -1.00519 , -0) 
 At (1.275 , 0.875 , 0.05 )  Deviation = 0.000777549 Body force = (-0.000587326 , -0.755355 , -0) 
 At (1.325 , 0.875 , 0.05 )  Deviation = 0.000585741 Body force = (-0.000333325 , -0.569066 , -0) 
 At (1.375 , 0.875 , 0.05 )  Deviation = 0.000442078 Body force = (-0.00018988 , -0.429517 , -0) 
 At (1.425 , 0.875 , 0.05 )  Deviation = 0.000334034 Body force = (-0.000108413 , -0.324557 , -0) 
 At (1.475 , 0.875 , 0.05 )  Deviation = 0.000252578 Body force = (-6.19877e-05 , -0.24542 , -0) 
 At (1.525 , 0.875 , 0.05 )  Deviation = 0 Body force = (0 , 0 , 0) 
 At (1.575 , 0.875 , 0.05 )  Deviation = 10 Body force = (0 , 0 , 0) 
 At (1.625 , 0.875 , 0.05 )  Deviation = -1.75575 Body force = (0 , 0 , 0) 
 At (1.675 , 0.875 , 0.05 )  Deviation = 0 Body force = (0 , 0 , 0) 
 At (1.725 , 0.875 , 0.05 )  Deviation = 10 Body force = (0 , 0 , 0) 
 At (1.775 , 0.875 , 0.05 )  Deviation = -1.7557 Body force = (0 , 0 , 0) 
 At (1.825 , 0.875 , 0.05 )  Deviation = 0 Body force = (0 , 0 , 0) 
 At (1.875 , 0.875 , 0.05 )  Deviation = 10 Body force = (0 , 0 , 0) 
 At (1.925 , 0.875 , 0.05 )  Deviation = -1.75568 Body force = (0 , 0 , 0) 
 At (1.975 , 0.875 , 0.05 )  Deviation = 0 Body force = (0 , 0 , 0) 
 At (0.025 , 0.925 , 0.05 )  Deviation = 10 Body force = (0 , 0 , 0) 
 At (0.075 , 0.925 , 0.05 )  Deviation = -4.36172e-10 Body force = (0 , 0 , 0) 
 At (0.125 , 0.925 , 0.05 )  Deviation = 0 Body force = (0 , 0 , 0) 
 At (0.175 , 0.925 , 0.05 )  Deviation = 10 Body force = (0 , 0 , 0) 
 At (0.225 , 0.925 , 0.05 )  Deviation = -9.54135e-10 Body force = (0 , 0 , 0) 
 At (0.275 , 0.925 , 0.05 )  Deviation = 0 Body force = (0 , 0 , 0) 
 At (0.325 , 0.925 , 0.05 )  Deviation = 10 Body force = (0 , 0 , 0) 
 At (0.375 , 0.925 , 0.05 )  Deviation = -1.39454e-09 Body force = (0 , 0 , 0) 
 At (0.425 , 0.925 , 0.05 )  Deviation = 0 Body force = (0 , 0 , 0) 
 At (0.475 , 0.925 , 0.05 )  Deviation = 10 Body force = (0 , 0 , 0) 
 At (0.525 , 0.925 , 0.05 )  Deviation = 0.118705 Body force = (-13.2245 , -110.883 , -0) 
 At (0.575 , 0.925 , 0.05 )  Deviation = 0.0806526 Body force = (-6.15319 , -76.127 , -0) 
 At (0.625 , 0.925 , 0.05 )  Deviation = 0.0549214 Body force = (-2.87412 , -52.2788 , -0) 
 At (0.675 , 0.925 , 0.05 )  Deviation = 0.037561 Body force = (-1.35133 , -35.96 , -0) 
 At (0.725 , 0.925 , 0.05 )  Deviation = 0.0258666 Body force = (-0.643355 , -24.8665 , -0) 
 At (0.775 , 0.925 , 0.05 )  Deviation = 0.0179759 Body force = (-0.311633 , -17.3343 , -0) 
 At (0.825 , 0.925 , 0.05 )  Deviation = 0.0126203 Body force = (-0.15394 , -12.1972 , -0) 
 At (0.875 , 0.925 , 0.05 )  Deviation = 0.00895395 Body force = (-0.0776105 , -8.6675 , -0) 
 At (0.925 , 0.925 , 0.05 )  Deviation = 0.00641928 Body force = (-0.0399335 , -6.22079 , -0) 
 At (0.975 , 0.925 , 0.05 )  Deviation = 0.0046479 Body force = (-0.0209515 , -4.50769 , -0) 
 At (1.025 , 0.925 , 0.05 )  Deviation = 0.00339586 Body force = (-0.0111902 , -3.29524 , -0) 
 At (1.075 , 0.925 , 0.05 )  Deviation = 0.00250078 Body force = (-0.00607098 , -2.42763 , -0) 
 At (1.125 , 0.925 , 0.05 )  Deviation = 0.00185402 Body force = (-0.00333777 , -1.80029 , -0) 
 At (1.175 , 0.925 , 0.05 )  Deviation = 0.00138214 Body force = (-0.00185532 , -1.34235 , -0) 
 At (1.225 , 0.925 , 0.05 )  Deviation = 0.00103494 Body force = (-0.00104042 , -1.0053 , -0) 
 At (1.275 , 0.925 , 0.05 )  Deviation = 0.000777638 Body force = (-0.000587461 , -0.755442 , -0) 
 At (1.325 , 0.925 , 0.05 )  Deviation = 0.000585831 Body force = (-0.000333428 , -0.569153 , -0) 
 At (1.375 , 0.925 , 0.05 )  Deviation = 0.000442155 Body force = (-0.000189946 , -0.429591 , -0) 
 At (1.425 , 0.925 , 0.05 )  Deviation = 0.000334106 Body force = (-0.00010846 , -0.324627 , -0) 
 At (1.475 , 0.925 , 0.05 )  Deviation = 0.00025264 Body force = (-6.2018e-05 , -0.24548 , -0) 
 At (1.525 , 0.925 , 0.05 )  Deviation = 9.97051 Body force = (0 , 0 , 0) 
 At (1.575 , 0.925 , 0.05 )  Deviation = -0.557368 Body force = (0 , 0 , 0) 
 At (1.625 , 0.925 , 0.05 )  Deviation = 0 Body force = (0 , 0 , 0) 
 At (1.675 , 0.925 , 0.05 )  Deviation = 9.97311 Body force = (0 , 0 , 0) 
 At (1.725 , 0.925 , 0.05 )  Deviation = -0.939094 Body force = (0 , 0 , 0) 
 At (1.775 , 0.925 , 0.05 )  Deviation = 0 Body force = (0 , 0 , 0) 
 At (1.825 , 0.925 , 0.05 )  Deviation = 9.97918 Body force = (0 , 0 , 0) 
 At (1.875 , 0.925 , 0.05 )  Deviation = -1.19886 Body force = (0 , 0 , 0) 
 At (1.925 , 0.925 , 0.05 )  Deviation = 0 Body force = (0 , 0 , 0) 
 At (1.975 , 0.925 , 0.05 )  Deviation = 9.98255 Body force = (0 , 0 , 0) 
 At (0.025 , 0.975 , 0.05 )  Deviation = -1.37477 Body force = (0 , 0 , 0) 
 At (0.075 , 0.975 , 0.05 )  Deviation = 0 Body force = (0 , 0 , 0) 
 At (0.125 , 0.975 , 0.05 )  Deviation = 9.9857 Body force = (0 , 0 , 0) 
 At (0.175 , 0.975 , 0.05 )  Deviation = -1.49384 Body force = (0 , 0 , 0) 
 At (0.225 , 0.975 , 0.05 )  Deviation = 0 Body force = (0 , 0 , 0) 
 At (0.275 , 0.975 , 0.05 )  Deviation = 9.98917 Body force = (0 , 0 , 0) 
 At (0.325 , 0.975 , 0.05 )  Deviation = -1.57473 Body force = (0 , 0 , 0) 
 At (0.375 , 0.975 , 0.05 )  Deviation = 0 Body force = (0 , 0 , 0) 
 At (0.425 , 0.975 , 0.05 )  Deviation = 9.99227 Body force = (0 , 0 , 0) 
 At (0.475 , 0.975 , 0.05 )  Deviation = -1.63003 Body force = (0 , 0 , 0) 
 At (0.525 , 0.975 , 0.05 )  Deviation = 0.118706 Body force = (-13.2248 , -110.884 , -0) 
 At (0.575 , 0.975 , 0.05 )  Deviation = 0.0806534 Body force = (-6.15331 , -76.1277 , -0) 
 At (0.625 , 0.975 , 0.05 )  Deviation = 0.0549215 Body force = (-2.87413 , -52.2789 , -0) 
 At (0.675 , 0.975 , 0.05 )  Deviation = 0.0375607 Body force = (-1.35131 , -35.9597 , -0) 
 At (0.725 , 0.975 , 0.05 )  Deviation = 0.0258661 Body force = (-0.643332 , -24.8661 , -0) 
 At (0.775 , 0.975 , 0.05 )  Deviation = 0.0179755 Body force = (-0.31162 , -17.3339 , -0) 
 At (0.825 , 0.975 , 0.05 )  Deviation = 0.0126201 Body force = (-0.153935 , -12.197 , -0) 
 At (0.875 , 0.975 , 0.05 )  Deviation = 0.00895396 Body force = (-0.0776106 , -8.66751 , -0) 
 At (0.925 , 0.975 , 0.05 )  Deviation = 0.00641944 Body force = (-0.0399355 , -6.22094 , -0) 
 At (0.975 , 0.975 , 0.05 )  Deviation = 0.00464817 Body force = (-0.0209539 , -4.50795 , -0) 
 At (1.025 , 0.975 , 0.05 )  Deviation = 0.00339618 Body force = (-0.0111923 , -3.29555 , -0) 
 At (1.075 , 0.975 , 0.05 )  Deviation = 0.00250112 Body force = (-0.00607264 , -2.42796 , -0) 
 At (1.125 , 0.975 , 0.05 )  Deviation = 0.00185435 Body force = (-0.00333898 , -1.80061 , -0) 
 At (1.175 , 0.975 , 0.05 )  Deviation = 0.00138246 Body force = (-0.00185618 , -1.34267 , -0) 
 At (1.225 , 0.975 , 0.05 )  Deviation = 0.00103524 Body force = (-0.00104102 , -1.00558 , -0) 
 At (1.275 , 0.975 , 0.05 )  Deviation = 0.000777906 Body force = (-0.000587865 , -0.755702 , -0) 
 At (1.325 , 0.975 , 0.05 )  Deviation = 0.000586069 Body force = (-0.000333699 , -0.569385 , -0) 
 At (1.375 , 0.975 , 0.05 )  Deviation = 0.000442365 Body force = (-0.000190126 , -0.429795 , -0) 
 At (1.425 , 0.975 , 0.05 )  Deviation = 0.00033429 Body force = (-0.000108579 , -0.324805 , -0) 
 At (1.475 , 0.975 , 0.05 )  Deviation = 0.000252798 Body force = (-6.20955e-05 , -0.245633 , -0) 
 At (1.525 , 0.975 , 0.05 )  Deviation = -1.74819 Body force = (0 , 0 , 0) 
 At (1.575 , 0.975 , 0.05 )  Deviation = 0 Body force = (0 , 0 , 0) 
 At (1.625 , 0.975 , 0.05 )  Deviation = 9.99968 Body force = (0 , 0 , 0) 
 At (1.675 , 0.975 , 0.05 )  Deviation = -1.75195 Body force = (0 , 0 , 0) 
 At (1.725 , 0.975 , 0.05 )  Deviation = 0 Body force = (0 , 0 , 0) 
 At (1.775 , 0.975 , 0.05 )  Deviation = 9.99979 Body force = (0 , 0 , 0) 
 At (1.825 , 0.975 , 0.05 )  Deviation = -1.75474 Body force = (0 , 0 , 0) 
 At (1.875 , 0.975 , 0.05 )  Deviation = 0 Body force = (0 , 0 , 0) 
 At (1.925 , 0.975 , 0.05 )  Deviation = 9.99987 Body force = (0 , 0 , 0) 
 At (1.975 , 0.975 , 0.05 )  Deviation = -1.75683 Body force = (0 , 0 , 0) 
**codeSetValue**
smoothSolver:  Solving for Ux, Initial residual = 0.303847, Final residual = 0.0150266, No Iterations 2
smoothSolver:  Solving for Uy, Initial residual = 0.00207053, Final residual = 0.000117813, No Iterations 2
**codeCorrect**
GAMG:  Solving for p, Initial residual = 0.0737637, Final residual = 0.00300088, No Iterations 2
time step continuity errors : sum local = 0.000455107, global = 0.000110125, cumulative = -0.000158061
**codeCorrect**
ExecutionTime = 2.96 s  ClockTime = 26 s

Time = 81

**codeSetValue**
smoothSolver:  Solving for Ux, Initial residual = 0.22643, Final residual = 0.0123149, No Iterations 2
smoothSolver:  Solving for Uy, Initial residual = 0.000814773, Final residual = 4.6918e-05, No Iterations 2
**codeCorrect**
GAMG:  Solving for p, Initial residual = 0.116373, Final residual = 0.00743996, No Iterations 2
time step continuity errors : sum local = 0.0011371, global = 0.00023436, cumulative = 7.62994e-05
**codeCorrect**
ExecutionTime = 2.96 s  ClockTime = 26 s

Time = 82

**codeSetValue**
smoothSolver:  Solving for Ux, Initial residual = 0.0958184, Final residual = 0.00417402, No Iterations 2
smoothSolver:  Solving for Uy, Initial residual = 0.000462871, Final residual = 2.57129e-05, No Iterations 2
**codeCorrect**
GAMG:  Solving for p, Initial residual = 0.10629, Final residual = 0.00576619, No Iterations 2
time step continuity errors : sum local = 0.000732895, global = 0.000125799, cumulative = 0.000202098
**codeCorrect**
ExecutionTime = 2.98 s  ClockTime = 26 s

Time = 83

**codeSetValue**
smoothSolver:  Solving for Ux, Initial residual = 0.19221, Final residual = 0.0114524, No Iterations 2
smoothSolver:  Solving for Uy, Initial residual = 0.000285881, Final residual = 1.47394e-05, No Iterations 2
**codeCorrect**
GAMG:  Solving for p, Initial residual = 0.115287, Final residual = 0.0052958, No Iterations 2
time step continuity errors : sum local = 0.000577737, global = -0.000157328, cumulative = 4.47705e-05
**codeCorrect**
ExecutionTime = 2.98 s  ClockTime = 26 s

Time = 84

**codeSetValue**
smoothSolver:  Solving for Ux, Initial residual = 0.150327, Final residual = 0.00821745, No Iterations 2
smoothSolver:  Solving for Uy, Initial residual = 0.000388714, Final residual = 2.04632e-05, No Iterations 2
**codeCorrect**
GAMG:  Solving for p, Initial residual = 0.112366, Final residual = 0.00746705, No Iterations 2
time step continuity errors : sum local = 0.000842058, global = -0.000171351, cumulative = -0.00012658
**codeCorrect**
ExecutionTime = 2.98 s  ClockTime = 26 s

Time = 85

**codeSetValue**
smoothSolver:  Solving for Ux, Initial residual = 0.121912, Final residual = 0.00558016, No Iterations 2
smoothSolver:  Solving for Uy, Initial residual = 0.000235952, Final residual = 1.14435e-05, No Iterations 2
**codeCorrect**
GAMG:  Solving for p, Initial residual = 0.0844261, Final residual = 0.00380716, No Iterations 2
time step continuity errors : sum local = 0.000495372, global = -7.88749e-05, cumulative = -0.000205455
**codeCorrect**
ExecutionTime = 3.01 s  ClockTime = 26 s

Time = 86

**codeSetValue**
smoothSolver:  Solving for Ux, Initial residual = 0.140996, Final residual = 0.00823238, No Iterations 2
smoothSolver:  Solving for Uy, Initial residual = 0.000173221, Final residual = 8.03939e-06, No Iterations 2
**codeCorrect**
GAMG:  Solving for p, Initial residual = 0.0743812, Final residual = 0.0036454, No Iterations 2
time step continuity errors : sum local = 0.000509514, global = 0.000140053, cumulative = -6.54022e-05
**codeCorrect**
ExecutionTime = 3.01 s  ClockTime = 26 s

Time = 87

**codeSetValue**
smoothSolver:  Solving for Ux, Initial residual = 0.126186, Final residual = 0.00618193, No Iterations 2
smoothSolver:  Solving for Uy, Initial residual = 0.000192516, Final residual = 1.06233e-05, No Iterations 2
**codeCorrect**
GAMG:  Solving for p, Initial residual = 0.0727319, Final residual = 0.0044007, No Iterations 2
time step continuity errors : sum local = 0.000593568, global = 0.000118157, cumulative = 5.27548e-05
**codeCorrect**
ExecutionTime = 3.02 s  ClockTime = 26 s

Time = 88

**codeSetValue**
smoothSolver:  Solving for Ux, Initial residual = 0.112479, Final residual = 0.0053176, No Iterations 2
smoothSolver:  Solving for Uy, Initial residual = 0.000122907, Final residual = 5.61868e-06, No Iterations 2
**codeCorrect**
GAMG:  Solving for p, Initial residual = 0.0735823, Final residual = 0.00269053, No Iterations 2
time step continuity errors : sum local = 0.000325785, global = 5.75753e-05, cumulative = 0.00011033
**codeCorrect**
ExecutionTime = 3.03 s  ClockTime = 26 s

Time = 89

**codeSetValue**
smoothSolver:  Solving for Ux, Initial residual = 0.111695, Final residual = 0.00606073, No Iterations 2
smoothSolver:  Solving for Uy, Initial residual = 0.00010184, Final residual = 4.66243e-06, No Iterations 2
**codeCorrect**
GAMG:  Solving for p, Initial residual = 0.0707312, Final residual = 0.00307889, No Iterations 2
time step continuity errors : sum local = 0.000354231, global = -9.20691e-05, cumulative = 1.8261e-05
**codeCorrect**
ExecutionTime = 3.03 s  ClockTime = 26 s

Time = 90

 At (0.025 , 0.025 , 0.05 )  Deviation = 6.91951e-310 Body force = (0 , 0 , 0) 
 At (0.075 , 0.025 , 0.05 )  Deviation = 6.91951e-310 Body force = (0 , 0 , 0) 
 At (0.125 , 0.025 , 0.05 )  Deviation = 1.64091e-316 Body force = (0 , 0 , 0) 
 At (0.175 , 0.025 , 0.05 )  Deviation = 1.64091e-316 Body force = (0 , 0 , 0) 
 At (0.225 , 0.025 , 0.05 )  Deviation = 9.99929 Body force = (0 , 0 , 0) 
 At (0.275 , 0.025 , 0.05 )  Deviation = -1.11317e-05 Body force = (0 , 0 , 0) 
 At (0.325 , 0.025 , 0.05 )  Deviation = 0 Body force = (0 , 0 , 0) 
 At (0.375 , 0.025 , 0.05 )  Deviation = 10.0121 Body force = (0 , 0 , 0) 
 At (0.425 , 0.025 , 0.05 )  Deviation = -3.41893e-05 Body force = (0 , 0 , 0) 
 At (0.475 , 0.025 , 0.05 )  Deviation = 0 Body force = (0 , 0 , 0) 
 At (0.525 , 0.025 , 0.05 )  Deviation = 0.11887 Body force = (-13.2908 , -111.283 , -0) 
 At (0.575 , 0.025 , 0.05 )  Deviation = 0.0808475 Body force = (-6.20493 , -76.5812 , -0) 
 At (0.625 , 0.025 , 0.05 )  Deviation = 0.0549545 Body force = (-2.88748 , -52.4903 , -0) 
 At (0.675 , 0.025 , 0.05 )  Deviation = 0.0373204 Body force = (-1.33776 , -35.8286 , -0) 
 At (0.725 , 0.025 , 0.05 )  Deviation = 0.0253459 Body force = (-0.619095 , -24.4207 , -0) 
 At (0.775 , 0.025 , 0.05 )  Deviation = 0.0172275 Body force = (-0.286785 , -16.6453 , -0) 
 At (0.825 , 0.025 , 0.05 )  Deviation = 0.0117135 Body force = (-0.13285 , -11.3411 , -0) 
 At (0.875 , 0.025 , 0.05 )  Deviation = 0.00795617 Body force = (-0.0613734 , -7.71378 , -0) 
 At (0.925 , 0.025 , 0.05 )  Deviation = 0.00538951 Body force = (-0.0281849 , -5.22952 , -0) 
 At (0.975 , 0.025 , 0.05 )  Deviation = 0.00363513 Body force = (-0.0128273 , -3.52868 , -0) 
 At (1.025 , 0.025 , 0.05 )  Deviation = 0.00243801 Body force = (-0.00577087 , -2.36703 , -0) 
 At (1.075 , 0.025 , 0.05 )  Deviation = 0.00162475 Body force = (-0.00256313 , -1.57755 , -0) 
 At (1.125 , 0.025 , 0.05 )  Deviation = 0.00107616 Body force = (-0.0011245 , -1.04492 , -0) 
 At (1.175 , 0.025 , 0.05 )  Deviation = 0.000709566 Body force = (-0.000488882 , -0.688988 , -0) 
 At (1.225 , 0.025 , 0.05 )  Deviation = 0.000467216 Body force = (-0.000211973 , -0.453693 , -0) 
 At (1.275 , 0.025 , 0.05 )  Deviation = 0.000308804 Body force = (-9.26076e-05 , -0.299892 , -0) 
 At (1.325 , 0.025 , 0.05 )  Deviation = 0.000206279 Body force = (-4.13275e-05 , -0.200347 , -0) 
 At (1.375 , 0.025 , 0.05 )  Deviation = 0.00014039 Body force = (-1.91449e-05 , -0.136369 , -0) 
 At (1.425 , 0.025 , 0.05 )  Deviation = 9.80534e-05 Body force = (-9.34008e-06 , -0.0952551 , -0) 
 At (1.475 , 0.025 , 0.05 )  Deviation = 7.06061e-05 Body force = (-4.84345e-06 , -0.0685982 , -0) 
 At (1.525 , 0.025 , 0.05 )  Deviation = 0 Body force = (0 , 0 , 0) 
 At (1.575 , 0.025 , 0.05 )  Deviation = 10.0032 Body force = (0 , 0 , 0) 
 At (1.625 , 0.025 , 0.05 )  Deviation = -1.68172 Body force = (0 , 0 , 0) 
 At (1.675 , 0.025 , 0.05 )  Deviation = 0 Body force = (0 , 0 , 0) 
 At (1.725 , 0.025 , 0.05 )  Deviation = 10.0026 Body force = (0 , 0 , 0) 
 At (1.775 , 0.025 , 0.05 )  Deviation = -1.70806 Body force = (0 , 0 , 0) 
 At (1.825 , 0.025 , 0.05 )  Deviation = 0 Body force = (0 , 0 , 0) 
 At (1.875 , 0.025 , 0.05 )  Deviation = 10.0012 Body force = (0 , 0 , 0) 
 At (1.925 , 0.025 , 0.05 )  Deviation = -1.72596 Body force = (0 , 0 , 0) 
 At (1.975 , 0.025 , 0.05 )  Deviation = 0 Body force = (0 , 0 , 0) 
 At (0.025 , 0.075 , 0.05 )  Deviation = 9.99956 Body force = (0 , 0 , 0) 
 At (0.075 , 0.075 , 0.05 )  Deviation = -1.73808 Body force = (0 , 0 , 0) 
 At (0.125 , 0.075 , 0.05 )  Deviation = 0 Body force = (0 , 0 , 0) 
 At (0.175 , 0.075 , 0.05 )  Deviation = 9.99802 Body force = (0 , 0 , 0) 
 At (0.225 , 0.075 , 0.05 )  Deviation = -1.74627 Body force = (0 , 0 , 0) 
 At (0.275 , 0.075 , 0.05 )  Deviation = 0 Body force = (0 , 0 , 0) 
 At (0.325 , 0.075 , 0.05 )  Deviation = 9.99685 Body force = (0 , 0 , 0) 
 At (0.375 , 0.075 , 0.05 )  Deviation = -1.75178 Body force = (0 , 0 , 0) 
 At (0.425 , 0.075 , 0.05 )  Deviation = 0 Body force = (0 , 0 , 0) 
 At (0.475 , 0.075 , 0.05 )  Deviation = 9.99618 Body force = (0 , 0 , 0) 
 At (0.525 , 0.075 , 0.05 )  Deviation = 0.118871 Body force = (-13.2911 , -111.284 , -0) 
 At (0.575 , 0.075 , 0.05 )  Deviation = 0.0808477 Body force = (-6.20495 , -76.5813 , -0) 
 At (0.625 , 0.075 , 0.05 )  Deviation = 0.0549538 Body force = (-2.8874 , -52.4894 , -0) 
 At (0.675 , 0.075 , 0.05 )  Deviation = 0.0373192 Body force = (-1.33767 , -35.8273 , -0) 
[...]
 At (1.375 , 0.725 , 0.05 )  Deviation = 0.000167269 Body force = (-2.71878e-05 , -0.162539 , -0) 
 At (1.425 , 0.725 , 0.05 )  Deviation = 0.000113693 Body force = (-1.25609e-05 , -0.110481 , -0) 
 At (1.475 , 0.725 , 0.05 )  Deviation = 7.72764e-05 Body force = (-5.80297e-06 , -0.0750937 , -0) 
 At (1.525 , 0.725 , 0.05 )  Deviation = 0.00108577 Body force = (0 , 0 , 0) 
 At (1.575 , 0.725 , 0.05 )  Deviation = 0.000291697 Body force = (0 , 0 , 0) 
 At (1.625 , 0.725 , 0.05 )  Deviation = 0.000458981 Body force = (0 , 0 , 0) 
 At (1.675 , 0.725 , 0.05 )  Deviation = 2.86735e-05 Body force = (0 , 0 , 0) 
 At (1.725 , 0.725 , 0.05 )  Deviation = 0.000124437 Body force = (0 , 0 , 0) 
 At (1.775 , 0.725 , 0.05 )  Deviation = -0.000110772 Body force = (0 , 0 , 0) 
 At (1.825 , 0.725 , 0.05 )  Deviation = -6.7067e-05 Body force = (0 , 0 , 0) 
 At (1.875 , 0.725 , 0.05 )  Deviation = -0.000170421 Body force = (0 , 0 , 0) 
 At (1.925 , 0.725 , 0.05 )  Deviation = -0.000154458 Body force = (0 , 0 , 0) 
 At (1.975 , 0.725 , 0.05 )  Deviation = -0.000191539 Body force = (0 , 0 , 0) 
 At (0.025 , 0.775 , 0.05 )  Deviation = -0.000186372 Body force = (0 , 0 , 0) 
 At (0.075 , 0.775 , 0.05 )  Deviation = -0.000197821 Body force = (0 , 0 , 0) 
 At (0.125 , 0.775 , 0.05 )  Deviation = -0.000196704 Body force = (0 , 0 , 0) 
 At (0.175 , 0.775 , 0.05 )  Deviation = -0.000197985 Body force = (0 , 0 , 0) 
 At (0.225 , 0.775 , 0.05 )  Deviation = -0.000198945 Body force = (0 , 0 , 0) 
 At (0.275 , 0.775 , 0.05 )  Deviation = -0.000194709 Body force = (0 , 0 , 0) 
 At (0.325 , 0.775 , 0.05 )  Deviation = -0.000197041 Body force = (0 , 0 , 0) 
 At (0.375 , 0.775 , 0.05 )  Deviation = -0.000188933 Body force = (0 , 0 , 0) 
 At (0.425 , 0.775 , 0.05 )  Deviation = -0.000192403 Body force = (0 , 0 , 0) 
 At (0.475 , 0.775 , 0.05 )  Deviation = -0.000180738 Body force = (0 , 0 , 0) 
 At (0.525 , 0.775 , 0.05 )  Deviation = 0.118871 Body force = (-13.291 , -111.283 , -0) 
 At (0.575 , 0.775 , 0.05 )  Deviation = 0.0808505 Body force = (-6.20543 , -76.5846 , -0) 
 At (0.625 , 0.775 , 0.05 )  Deviation = 0.0549588 Body force = (-2.88809 , -52.4971 , -0) 
 At (0.675 , 0.775 , 0.05 )  Deviation = 0.0373239 Body force = (-1.33812 , -35.8348 , -0) 
 At (0.725 , 0.775 , 0.05 )  Deviation = 0.0253436 Body force = (-0.618988 , -24.4186 , -0) 
 At (0.775 , 0.775 , 0.05 )  Deviation = 0.017217 Body force = (-0.286384 , -16.6322 , -0) 
 At (0.825 , 0.775 , 0.05 )  Deviation = 0.0117003 Body force = (-0.132501 , -11.3241 , -0) 
 At (0.875 , 0.775 , 0.05 )  Deviation = 0.00795155 Body force = (-0.0612748 , -7.70585 , -0) 
 At (0.925 , 0.775 , 0.05 )  Deviation = 0.00540372 Body force = (-0.028323 , -5.24134 , -0) 
 At (0.975 , 0.775 , 0.05 )  Deviation = 0.00367239 Body force = (-0.013089 , -3.56416 , -0) 
 At (1.025 , 0.775 , 0.05 )  Deviation = 0.00249593 Body force = (-0.00604857 , -2.42337 , -0) 
 At (1.075 , 0.775 , 0.05 )  Deviation = 0.00169642 Body force = (-0.00279496 , -1.64756 , -0) 
 At (1.125 , 0.775 , 0.05 )  Deviation = 0.00115303 Body force = (-0.00129143 , -1.12003 , -0) 
 At (1.175 , 0.775 , 0.05 )  Deviation = 0.000783696 Body force = (-0.000596683 , -0.761371 , -0) 
 At (1.225 , 0.775 , 0.05 )  Deviation = 0.000532672 Body force = (-0.000275681 , -0.517543 , -0) 
 At (1.275 , 0.775 , 0.05 )  Deviation = 0.000362056 Body force = (-0.000127369 , -0.351794 , -0) 
 At (1.325 , 0.775 , 0.05 )  Deviation = 0.00024609 Body force = (-5.88465e-05 , -0.239125 , -0) 
 At (1.375 , 0.775 , 0.05 )  Deviation = 0.000167269 Body force = (-2.71878e-05 , -0.162539 , -0) 
 At (1.425 , 0.775 , 0.05 )  Deviation = 0.000113693 Body force = (-1.25609e-05 , -0.11048 , -0) 
 At (1.475 , 0.775 , 0.05 )  Deviation = 7.72764e-05 Body force = (-5.80297e-06 , -0.0750937 , -0) 
 At (1.525 , 0.775 , 0.05 )  Deviation = -5.46445e-06 Body force = (0 , 0 , 0) 
 At (1.575 , 0.775 , 0.05 )  Deviation = -2.80166e-07 Body force = (0 , 0 , 0) 
 At (1.625 , 0.775 , 0.05 )  Deviation = 1.24349 Body force = (0 , 0 , 0) 
 At (1.675 , 0.775 , 0.05 )  Deviation = 1.24349 Body force = (0 , 0 , 0) 
 At (1.725 , 0.775 , 0.05 )  Deviation = 1.24349 Body force = (0 , 0 , 0) 
 At (1.775 , 0.775 , 0.05 )  Deviation = 1.24349 Body force = (0 , 0 , 0) 
 At (1.825 , 0.775 , 0.05 )  Deviation = 1.24349 Body force = (0 , 0 , 0) 
 At (1.875 , 0.775 , 0.05 )  Deviation = 1.24349 Body force = (0 , 0 , 0) 
 At (1.925 , 0.775 , 0.05 )  Deviation = 1.24349 Body force = (0 , 0 , 0) 
 At (1.975 , 0.775 , 0.05 )  Deviation = 1.24349 Body force = (0 , 0 , 0) 
 At (0.025 , 0.825 , 0.05 )  Deviation = 1.24349 Body force = (0 , 0 , 0) 
 At (0.075 , 0.825 , 0.05 )  Deviation = 1.24349 Body force = (0 , 0 , 0) 
 At (0.125 , 0.825 , 0.05 )  Deviation = 1.24349 Body force = (0 , 0 , 0) 
 At (0.175 , 0.825 , 0.05 )  Deviation = 1.24349 Body force = (0 , 0 , 0) 
 At (0.225 , 0.825 , 0.05 )  Deviation = 1.24353 Body force = (0 , 0 , 0) 
 At (0.275 , 0.825 , 0.05 )  Deviation = 1.24348 Body force = (0 , 0 , 0) 
 At (0.325 , 0.825 , 0.05 )  Deviation = 1.24287 Body force = (0 , 0 , 0) 
 At (0.375 , 0.825 , 0.05 )  Deviation = 1.24358 Body force = (0 , 0 , 0) 
 At (0.425 , 0.825 , 0.05 )  Deviation = 1.25209 Body force = (0 , 0 , 0) 
 At (0.475 , 0.825 , 0.05 )  Deviation = 1.24216 Body force = (0 , 0 , 0) 
 At (0.525 , 0.825 , 0.05 )  Deviation = 0.118871 Body force = (-13.291 , -111.283 , -0) 
 At (0.575 , 0.825 , 0.05 )  Deviation = 0.0808505 Body force = (-6.20543 , -76.5846 , -0) 
 At (0.625 , 0.825 , 0.05 )  Deviation = 0.0549588 Body force = (-2.88809 , -52.4971 , -0) 
 At (0.675 , 0.825 , 0.05 )  Deviation = 0.0373239 Body force = (-1.33812 , -35.8348 , -0) 
 At (0.725 , 0.825 , 0.05 )  Deviation = 0.0253436 Body force = (-0.618988 , -24.4186 , -0) 
 At (0.775 , 0.825 , 0.05 )  Deviation = 0.017217 Body force = (-0.286384 , -16.6322 , -0) 
 At (0.825 , 0.825 , 0.05 )  Deviation = 0.0117003 Body force = (-0.132501 , -11.3241 , -0) 
 At (0.875 , 0.825 , 0.05 )  Deviation = 0.00795155 Body force = (-0.0612748 , -7.70585 , -0) 
 At (0.925 , 0.825 , 0.05 )  Deviation = 0.00540372 Body force = (-0.028323 , -5.24134 , -0) 
 At (0.975 , 0.825 , 0.05 )  Deviation = 0.00367239 Body force = (-0.013089 , -3.56416 , -0) 
 At (1.025 , 0.825 , 0.05 )  Deviation = 0.00249593 Body force = (-0.00604857 , -2.42337 , -0) 
 At (1.075 , 0.825 , 0.05 )  Deviation = 0.00169642 Body force = (-0.00279496 , -1.64756 , -0) 
 At (1.125 , 0.825 , 0.05 )  Deviation = 0.00115303 Body force = (-0.00129143 , -1.12003 , -0) 
 At (1.175 , 0.825 , 0.05 )  Deviation = 0.000783696 Body force = (-0.000596683 , -0.761371 , -0) 
 At (1.225 , 0.825 , 0.05 )  Deviation = 0.000532672 Body force = (-0.00027568 , -0.517543 , -0) 
 At (1.275 , 0.825 , 0.05 )  Deviation = 0.000362056 Body force = (-0.000127369 , -0.351794 , -0) 
 At (1.325 , 0.825 , 0.05 )  Deviation = 0.00024609 Body force = (-5.88464e-05 , -0.239125 , -0) 
 At (1.375 , 0.825 , 0.05 )  Deviation = 0.000167269 Body force = (-2.71877e-05 , -0.162539 , -0) 
 At (1.425 , 0.825 , 0.05 )  Deviation = 0.000113693 Body force = (-1.25608e-05 , -0.11048 , -0) 
 At (1.475 , 0.825 , 0.05 )  Deviation = 7.72763e-05 Body force = (-5.80295e-06 , -0.0750936 , -0) 
 At (1.525 , 0.825 , 0.05 )  Deviation = 0.00029172 Body force = (0 , 0 , 0) 
 At (1.575 , 0.825 , 0.05 )  Deviation = 0.000458997 Body force = (0 , 0 , 0) 
 At (1.625 , 0.825 , 0.05 )  Deviation = 2.86962e-05 Body force = (0 , 0 , 0) 
 At (1.675 , 0.825 , 0.05 )  Deviation = 0.000124455 Body force = (0 , 0 , 0) 
 At (1.725 , 0.825 , 0.05 )  Deviation = -0.000110753 Body force = (0 , 0 , 0) 
 At (1.775 , 0.825 , 0.05 )  Deviation = -6.70498e-05 Body force = (0 , 0 , 0) 
 At (1.825 , 0.825 , 0.05 )  Deviation = -0.000170409 Body force = (0 , 0 , 0) 
 At (1.875 , 0.825 , 0.05 )  Deviation = -0.000154446 Body force = (0 , 0 , 0) 
 At (1.925 , 0.825 , 0.05 )  Deviation = -0.000191537 Body force = (0 , 0 , 0) 
 At (1.975 , 0.825 , 0.05 )  Deviation = -0.000186367 Body force = (0 , 0 , 0) 
 At (0.025 , 0.875 , 0.05 )  Deviation = -0.000197828 Body force = (0 , 0 , 0) 
 At (0.075 , 0.875 , 0.05 )  Deviation = -0.000196707 Body force = (0 , 0 , 0) 
 At (0.125 , 0.875 , 0.05 )  Deviation = -0.000198002 Body force = (0 , 0 , 0) 
 At (0.175 , 0.875 , 0.05 )  Deviation = -0.000198958 Body force = (0 , 0 , 0) 
 At (0.225 , 0.875 , 0.05 )  Deviation = -0.000194735 Body force = (0 , 0 , 0) 
 At (0.275 , 0.875 , 0.05 )  Deviation = -0.000197062 Body force = (0 , 0 , 0) 
 At (0.325 , 0.875 , 0.05 )  Deviation = -0.000188961 Body force = (0 , 0 , 0) 
 At (0.375 , 0.875 , 0.05 )  Deviation = -0.000192428 Body force = (0 , 0 , 0) 
 At (0.425 , 0.875 , 0.05 )  Deviation = -0.00018076 Body force = (0 , 0 , 0) 
 At (0.475 , 0.875 , 0.05 )  Deviation = -0.000185517 Body force = (0 , 0 , 0) 
 At (0.525 , 0.875 , 0.05 )  Deviation = 0.118871 Body force = (-13.291 , -111.283 , -0) 
 At (0.575 , 0.875 , 0.05 )  Deviation = 0.0808505 Body force = (-6.20543 , -76.5846 , -0) 
 At (0.625 , 0.875 , 0.05 )  Deviation = 0.0549588 Body force = (-2.88809 , -52.4971 , -0) 
 At (0.675 , 0.875 , 0.05 )  Deviation = 0.0373239 Body force = (-1.33812 , -35.8348 , -0) 
 At (0.725 , 0.875 , 0.05 )  Deviation = 0.0253436 Body force = (-0.618988 , -24.4186 , -0) 
 At (0.775 , 0.875 , 0.05 )  Deviation = 0.017217 Body force = (-0.286384 , -16.6322 , -0) 
 At (0.825 , 0.875 , 0.05 )  Deviation = 0.0117003 Body force = (-0.132501 , -11.3241 , -0) 
 At (0.875 , 0.875 , 0.05 )  Deviation = 0.00795155 Body force = (-0.0612748 , -7.70585 , -0) 
 At (0.925 , 0.875 , 0.05 )  Deviation = 0.00540372 Body force = (-0.028323 , -5.24134 , -0) 
 At (0.975 , 0.875 , 0.05 )  Deviation = 0.00367239 Body force = (-0.013089 , -3.56416 , -0) 
 At (1.025 , 0.875 , 0.05 )  Deviation = 0.00249593 Body force = (-0.00604857 , -2.42337 , -0) 
 At (1.075 , 0.875 , 0.05 )  Deviation = 0.00169642 Body force = (-0.00279496 , -1.64756 , -0) 
 At (1.125 , 0.875 , 0.05 )  Deviation = 0.00115303 Body force = (-0.00129143 , -1.12003 , -0) 
 At (1.175 , 0.875 , 0.05 )  Deviation = 0.000783696 Body force = (-0.000596683 , -0.76137 , -0) 
 At (1.225 , 0.875 , 0.05 )  Deviation = 0.000532671 Body force = (-0.00027568 , -0.517543 , -0) 
 At (1.275 , 0.875 , 0.05 )  Deviation = 0.000362056 Body force = (-0.000127369 , -0.351794 , -0) 
 At (1.325 , 0.875 , 0.05 )  Deviation = 0.00024609 Body force = (-5.88463e-05 , -0.239125 , -0) 
 At (1.375 , 0.875 , 0.05 )  Deviation = 0.000167269 Body force = (-2.71876e-05 , -0.162539 , -0) 
 At (1.425 , 0.875 , 0.05 )  Deviation = 0.000113693 Body force = (-1.25608e-05 , -0.11048 , -0) 
 At (1.475 , 0.875 , 0.05 )  Deviation = 7.72761e-05 Body force = (-5.80292e-06 , -0.0750934 , -0) 
 At (1.525 , 0.875 , 0.05 )  Deviation = -2.84571e-07 Body force = (0 , 0 , 0) 
 At (1.575 , 0.875 , 0.05 )  Deviation = 1.24349 Body force = (0 , 0 , 0) 
 At (1.625 , 0.875 , 0.05 )  Deviation = 1.24349 Body force = (0 , 0 , 0) 
 At (1.675 , 0.875 , 0.05 )  Deviation = 1.24349 Body force = (0 , 0 , 0) 
 At (1.725 , 0.875 , 0.05 )  Deviation = 1.24349 Body force = (0 , 0 , 0) 
 At (1.775 , 0.875 , 0.05 )  Deviation = 1.24349 Body force = (0 , 0 , 0) 
 At (1.825 , 0.875 , 0.05 )  Deviation = 1.24349 Body force = (0 , 0 , 0) 
 At (1.875 , 0.875 , 0.05 )  Deviation = 1.24349 Body force = (0 , 0 , 0) 
 At (1.925 , 0.875 , 0.05 )  Deviation = 1.24349 Body force = (0 , 0 , 0) 
 At (1.975 , 0.875 , 0.05 )  Deviation = 1.24349 Body force = (0 , 0 , 0) 
 At (0.025 , 0.925 , 0.05 )  Deviation = 1.24349 Body force = (0 , 0 , 0) 
 At (0.075 , 0.925 , 0.05 )  Deviation = 1.24349 Body force = (0 , 0 , 0) 
 At (0.125 , 0.925 , 0.05 )  Deviation = 1.24349 Body force = (0 , 0 , 0) 
 At (0.175 , 0.925 , 0.05 )  Deviation = 1.24353 Body force = (0 , 0 , 0) 
 At (0.225 , 0.925 , 0.05 )  Deviation = 1.24348 Body force = (0 , 0 , 0) 
 At (0.275 , 0.925 , 0.05 )  Deviation = 1.24287 Body force = (0 , 0 , 0) 
 At (0.325 , 0.925 , 0.05 )  Deviation = 1.24358 Body force = (0 , 0 , 0) 
 At (0.375 , 0.925 , 0.05 )  Deviation = 1.25209 Body force = (0 , 0 , 0) 
 At (0.425 , 0.925 , 0.05 )  Deviation = 1.24216 Body force = (0 , 0 , 0) 
 At (0.475 , 0.925 , 0.05 )  Deviation = 1.12361 Body force = (0 , 0 , 0) 
 At (0.525 , 0.925 , 0.05 )  Deviation = 0.118871 Body force = (-13.291 , -111.283 , -0) 
 At (0.575 , 0.925 , 0.05 )  Deviation = 0.0808505 Body force = (-6.20543 , -76.5846 , -0) 
 At (0.625 , 0.925 , 0.05 )  Deviation = 0.0549588 Body force = (-2.88809 , -52.4971 , -0) 
 At (0.675 , 0.925 , 0.05 )  Deviation = 0.0373239 Body force = (-1.33812 , -35.8348 , -0) 
 At (0.725 , 0.925 , 0.05 )  Deviation = 0.0253436 Body force = (-0.618988 , -24.4186 , -0) 
 At (0.775 , 0.925 , 0.05 )  Deviation = 0.017217 Body force = (-0.286384 , -16.6322 , -0) 
 At (0.825 , 0.925 , 0.05 )  Deviation = 0.0117003 Body force = (-0.132501 , -11.3241 , -0) 
 At (0.875 , 0.925 , 0.05 )  Deviation = 0.00795155 Body force = (-0.0612748 , -7.70585 , -0) 
 At (0.925 , 0.925 , 0.05 )  Deviation = 0.00540372 Body force = (-0.028323 , -5.24134 , -0) 
 At (0.975 , 0.925 , 0.05 )  Deviation = 0.00367239 Body force = (-0.013089 , -3.56416 , -0) 
 At (1.025 , 0.925 , 0.05 )  Deviation = 0.00249593 Body force = (-0.00604857 , -2.42337 , -0) 
 At (1.075 , 0.925 , 0.05 )  Deviation = 0.00169642 Body force = (-0.00279496 , -1.64756 , -0) 
 At (1.125 , 0.925 , 0.05 )  Deviation = 0.00115303 Body force = (-0.00129143 , -1.12003 , -0) 
 At (1.175 , 0.925 , 0.05 )  Deviation = 0.000783696 Body force = (-0.000596683 , -0.76137 , -0) 
 At (1.225 , 0.925 , 0.05 )  Deviation = 0.000532671 Body force = (-0.00027568 , -0.517543 , -0) 
 At (1.275 , 0.925 , 0.05 )  Deviation = 0.000362056 Body force = (-0.000127369 , -0.351794 , -0) 
 At (1.325 , 0.925 , 0.05 )  Deviation = 0.00024609 Body force = (-5.88462e-05 , -0.239125 , -0) 
 At (1.375 , 0.925 , 0.05 )  Deviation = 0.000167268 Body force = (-2.71876e-05 , -0.162539 , -0) 
 At (1.425 , 0.925 , 0.05 )  Deviation = 0.000113692 Body force = (-1.25607e-05 , -0.11048 , -0) 
 At (1.475 , 0.925 , 0.05 )  Deviation = 7.72757e-05 Body force = (-5.80287e-06 , -0.075093 , -0) 
 At (1.525 , 0.925 , 0.05 )  Deviation = 0.000459002 Body force = (0 , 0 , 0) 
 At (1.575 , 0.925 , 0.05 )  Deviation = 2.8709e-05 Body force = (0 , 0 , 0) 
 At (1.625 , 0.925 , 0.05 )  Deviation = 0.000124463 Body force = (0 , 0 , 0) 
 At (1.675 , 0.925 , 0.05 )  Deviation = -0.000110742 Body force = (0 , 0 , 0) 
 At (1.725 , 0.925 , 0.05 )  Deviation = -6.70424e-05 Body force = (0 , 0 , 0) 
 At (1.775 , 0.925 , 0.05 )  Deviation = -0.000170403 Body force = (0 , 0 , 0) 
 At (1.825 , 0.925 , 0.05 )  Deviation = -0.000154441 Body force = (0 , 0 , 0) 
 At (1.875 , 0.925 , 0.05 )  Deviation = -0.000191538 Body force = (0 , 0 , 0) 
 At (1.925 , 0.925 , 0.05 )  Deviation = -0.000186367 Body force = (0 , 0 , 0) 
 At (1.975 , 0.925 , 0.05 )  Deviation = -0.000197837 Body force = (0 , 0 , 0) 
 At (0.025 , 0.975 , 0.05 )  Deviation = -0.000196713 Body force = (0 , 0 , 0) 
 At (0.075 , 0.975 , 0.05 )  Deviation = -0.000198018 Body force = (0 , 0 , 0) 
 At (0.125 , 0.975 , 0.05 )  Deviation = -0.00019897 Body force = (0 , 0 , 0) 
 At (0.175 , 0.975 , 0.05 )  Deviation = -0.000194756 Body force = (0 , 0 , 0) 
 At (0.225 , 0.975 , 0.05 )  Deviation = -0.000197079 Body force = (0 , 0 , 0) 
 At (0.275 , 0.975 , 0.05 )  Deviation = -0.000188984 Body force = (0 , 0 , 0) 
 At (0.325 , 0.975 , 0.05 )  Deviation = -0.000192449 Body force = (0 , 0 , 0) 
 At (0.375 , 0.975 , 0.05 )  Deviation = -0.000180778 Body force = (0 , 0 , 0) 
 At (0.425 , 0.975 , 0.05 )  Deviation = -0.000185536 Body force = (0 , 0 , 0) 
 At (0.475 , 0.975 , 0.05 )  Deviation = -0.000169637 Body force = (0 , 0 , 0) 
 At (0.525 , 0.975 , 0.05 )  Deviation = 0.118871 Body force = (-13.291 , -111.283 , -0) 
 At (0.575 , 0.975 , 0.05 )  Deviation = 0.0808505 Body force = (-6.20543 , -76.5846 , -0) 
 At (0.625 , 0.975 , 0.05 )  Deviation = 0.0549588 Body force = (-2.88809 , -52.4971 , -0) 
 At (0.675 , 0.975 , 0.05 )  Deviation = 0.0373239 Body force = (-1.33812 , -35.8348 , -0) 
 At (0.725 , 0.975 , 0.05 )  Deviation = 0.0253436 Body force = (-0.618988 , -24.4186 , -0) 
 At (0.775 , 0.975 , 0.05 )  Deviation = 0.017217 Body force = (-0.286384 , -16.6322 , -0) 
 At (0.825 , 0.975 , 0.05 )  Deviation = 0.0117003 Body force = (-0.132501 , -11.3241 , -0) 
 At (0.875 , 0.975 , 0.05 )  Deviation = 0.00795155 Body force = (-0.0612748 , -7.70585 , -0) 
 At (0.925 , 0.975 , 0.05 )  Deviation = 0.00540372 Body force = (-0.028323 , -5.24134 , -0) 
 At (0.975 , 0.975 , 0.05 )  Deviation = 0.00367239 Body force = (-0.013089 , -3.56416 , -0) 
 At (1.025 , 0.975 , 0.05 )  Deviation = 0.00249593 Body force = (-0.00604857 , -2.42337 , -0) 
 At (1.075 , 0.975 , 0.05 )  Deviation = 0.00169642 Body force = (-0.00279496 , -1.64756 , -0) 
 At (1.125 , 0.975 , 0.05 )  Deviation = 0.00115303 Body force = (-0.00129143 , -1.12003 , -0) 
 At (1.175 , 0.975 , 0.05 )  Deviation = 0.000783696 Body force = (-0.000596683 , -0.76137 , -0) 
 At (1.225 , 0.975 , 0.05 )  Deviation = 0.000532671 Body force = (-0.00027568 , -0.517543 , -0) 
 At (1.275 , 0.975 , 0.05 )  Deviation = 0.000362055 Body force = (-0.000127369 , -0.351794 , -0) 
 At (1.325 , 0.975 , 0.05 )  Deviation = 0.00024609 Body force = (-5.88461e-05 , -0.239125 , -0) 
 At (1.375 , 0.975 , 0.05 )  Deviation = 0.000167268 Body force = (-2.71875e-05 , -0.162538 , -0) 
 At (1.425 , 0.975 , 0.05 )  Deviation = 0.000113692 Body force = (-1.25607e-05 , -0.11048 , -0) 
 At (1.475 , 0.975 , 0.05 )  Deviation = 7.72754e-05 Body force = (-5.80282e-06 , -0.0750927 , -0) 
 At (1.525 , 0.975 , 0.05 )  Deviation = 1.24349 Body force = (0 , 0 , 0) 
 At (1.575 , 0.975 , 0.05 )  Deviation = 1.24349 Body force = (0 , 0 , 0) 
 At (1.625 , 0.975 , 0.05 )  Deviation = 1.24349 Body force = (0 , 0 , 0) 
 At (1.675 , 0.975 , 0.05 )  Deviation = 1.24349 Body force = (0 , 0 , 0) 
 At (1.725 , 0.975 , 0.05 )  Deviation = 1.24349 Body force = (0 , 0 , 0) 
 At (1.775 , 0.975 , 0.05 )  Deviation = 1.24349 Body force = (0 , 0 , 0) 
 At (1.825 , 0.975 , 0.05 )  Deviation = 1.24349 Body force = (0 , 0 , 0) 
 At (1.875 , 0.975 , 0.05 )  Deviation = 1.24349 Body force = (0 , 0 , 0) 
 At (1.925 , 0.975 , 0.05 )  Deviation = 1.24349 Body force = (0 , 0 , 0) 
 At (1.975 , 0.975 , 0.05 )  Deviation = 1.24349 Body force = (0 , 0 , 0) 
**codeSetValue**
smoothSolver:  Solving for Ux, Initial residual = 0.000153804, Final residual = 9.00107e-06, No Iterations 2
smoothSolver:  Solving for Uy, Initial residual = 4.01804e-08, Final residual = 7.98539e-09, No Iterations 1
**codeCorrect**
GAMG:  Solving for p, Initial residual = 2.53562e-05, Final residual = 1.59844e-06, No Iterations 2
time step continuity errors : sum local = 1.84199e-07, global = -5.41615e-08, cumulative = -0.000195489
**codeCorrect**
ExecutionTime = 20.99 s  ClockTime = 48 s

Time = 141

**codeSetValue**
smoothSolver:  Solving for Ux, Initial residual = 0.000132644, Final residual = 7.34793e-06, No Iterations 2
smoothSolver:  Solving for Uy, Initial residual = 5.66769e-08, Final residual = 2.59153e-09, No Iterations 2
**codeCorrect**
GAMG:  Solving for p, Initial residual = 2.43574e-05, Final residual = 1.84612e-06, No Iterations 2
time step continuity errors : sum local = 2.12757e-07, global = 2.8776e-08, cumulative = -0.00019546
**codeCorrect**
ExecutionTime = 21 s  ClockTime = 48 s

Time = 142

**codeSetValue**
smoothSolver:  Solving for Ux, Initial residual = 8.81065e-05, Final residual = 3.72672e-06, No Iterations 2
smoothSolver:  Solving for Uy, Initial residual = 5.96973e-08, Final residual = 3.2267e-09, No Iterations 2
**codeCorrect**
GAMG:  Solving for p, Initial residual = 2.33378e-05, Final residual = 2.10475e-06, No Iterations 2
time step continuity errors : sum local = 2.42601e-07, global = 8.47179e-08, cumulative = -0.000195375
**codeCorrect**
ExecutionTime = 21 s  ClockTime = 48 s


SIMPLE solution converged in 142 iterations

End

