/*---------------------------------------------------------------------------*\
| =========                 |                                                 |
| \\      /  F ield         | OpenFOAM: The Open Source CFD Toolbox           |
|  \\    /   O peration     | Version:  5.x                                   |
|   \\  /    A nd           | Web:      www.OpenFOAM.org                      |
|    \\/     M anipulation  |                                                 |
\*---------------------------------------------------------------------------*/
Build  : 5.x-197d9d3bf20a
Exec   : simpleFoam
Date   : Jan 29 2019
Time   : 23:21:30
Host   : "palak"
PID    : 2522
I/O    : uncollated
Case   : /home/palak/OpenFOAM/palak-5.0/run/Z1flatanalytical
nProcs : 1
sigFpe : Enabling floating point exception trapping (FOAM_SIGFPE).
fileModificationChecking : Monitoring run-time modified files using timeStampMaster (fileModificationSkew 10)
allowSystemOperations : Allowing user-supplied system call operations

// * * * * * * * * * * * * * * * * * * * * * * * * * * * * * * * * * * * * * //
Create time

Create mesh for time = 0


SIMPLE: convergence criteria
    field p	 tolerance 0.001
    field U	 tolerance 0.0001
    field "(k|epsilon)"	 tolerance 0.0001

Reading field p

Reading field U

Reading/calculating face flux field phi

Selecting incompressible transport model Newtonian
Selecting turbulence model type laminar
Selecting laminar stress model Stokes
No MRF models present

Creating finite volume options from "constant/fvOptions"

Selecting finite volume options model type vectorCodedSource
    Source: momentumSource
    - selecting all cells
    - selected 800 cell(s) with volume 0.2

Starting time loop

Time = 1

Using dynamicCode for fvOption:: bodyForce at line 25 in "/home/palak/OpenFOAM/palak-5.0/run/Z1flatanalytical/constant/fvOptions.momentumSource.vectorCodedSourceCoeffs"
Selecting finite volume options model type bodyForce
    Source: bodyForce
    - selecting all cells
    - selected 800 cell(s) with volume 0.2
**codeSetValue**
smoothSolver:  Solving for Ux, Initial residual = 1, Final residual = 0.000190637, No Iterations 1
smoothSolver:  Solving for Uy, Initial residual = 1, Final residual = 0.000190637, No Iterations 1
**codeCorrect**
GAMG:  Solving for p, Initial residual = 1, Final residual = 0.0904549, No Iterations 2
time step continuity errors : sum local = 0.00989358, global = -0.000771784, cumulative = -0.000771784
**codeCorrect**
ExecutionTime = 0.13 s  ClockTime = 1 s

Time = 2

**codeSetValue**
smoothSolver:  Solving for Ux, Initial residual = 0.35815, Final residual = 0.00403484, No Iterations 2
smoothSolver:  Solving for Uy, Initial residual = 0.256102, Final residual = 0.0248285, No Iterations 1
**codeCorrect**
GAMG:  Solving for p, Initial residual = 0.0538467, Final residual = 0.00163006, No Iterations 3
time step continuity errors : sum local = 0.00128093, global = -0.000243104, cumulative = -0.00101489
**codeCorrect**
ExecutionTime = 0.13 s  ClockTime = 1 s

Time = 3

**codeSetValue**
smoothSolver:  Solving for Ux, Initial residual = 0.760796, Final residual = 0.0169555, No Iterations 2
smoothSolver:  Solving for Uy, Initial residual = 0.155083, Final residual = 0.00277431, No Iterations 2
**codeCorrect**
GAMG:  Solving for p, Initial residual = 0.0857701, Final residual = 0.00656341, No Iterations 2
time step continuity errors : sum local = 0.00641412, global = 8.71323e-05, cumulative = -0.000927756
**codeCorrect**
ExecutionTime = 0.13 s  ClockTime = 1 s

Time = 4

**codeSetValue**
smoothSolver:  Solving for Ux, Initial residual = 0.271092, Final residual = 0.00868047, No Iterations 2
smoothSolver:  Solving for Uy, Initial residual = 0.109427, Final residual = 0.00246242, No Iterations 2
**codeCorrect**
GAMG:  Solving for p, Initial residual = 0.201768, Final residual = 0.0163124, No Iterations 2
time step continuity errors : sum local = 0.00715343, global = 0.000271816, cumulative = -0.00065594
**codeCorrect**
ExecutionTime = 0.14 s  ClockTime = 1 s

Time = 5

**codeSetValue**
smoothSolver:  Solving for Ux, Initial residual = 0.39884, Final residual = 0.0136261, No Iterations 2
smoothSolver:  Solving for Uy, Initial residual = 0.0819688, Final residual = 0.00204185, No Iterations 2
**codeCorrect**
GAMG:  Solving for p, Initial residual = 0.122227, Final residual = 0.00984402, No Iterations 2
time step continuity errors : sum local = 0.00419945, global = 0.000314773, cumulative = -0.000341167
**codeCorrect**
ExecutionTime = 0.14 s  ClockTime = 1 s

Time = 6

**codeSetValue**
smoothSolver:  Solving for Ux, Initial residual = 0.631504, Final residual = 0.0270522, No Iterations 2
smoothSolver:  Solving for Uy, Initial residual = 0.0616764, Final residual = 0.00162046, No Iterations 2
**codeCorrect**
GAMG:  Solving for p, Initial residual = 0.115123, Final residual = 0.00999611, No Iterations 2
time step continuity errors : sum local = 0.00521503, global = 0.000363335, cumulative = 2.21671e-05
**codeCorrect**
ExecutionTime = 0.14 s  ClockTime = 1 s

Time = 7

**codeSetValue**
smoothSolver:  Solving for Ux, Initial residual = 0.317194, Final residual = 0.0127799, No Iterations 2
smoothSolver:  Solving for Uy, Initial residual = 0.0460477, Final residual = 0.00125692, No Iterations 2
**codeCorrect**
GAMG:  Solving for p, Initial residual = 0.408592, Final residual = 0.0336328, No Iterations 2
time step continuity errors : sum local = 0.00498805, global = 0.000251431, cumulative = 0.000273598
**codeCorrect**
ExecutionTime = 0.14 s  ClockTime = 1 s

Time = 8

**codeSetValue**
smoothSolver:  Solving for Ux, Initial residual = 0.409563, Final residual = 0.0165491, No Iterations 2
smoothSolver:  Solving for Uy, Initial residual = 0.0341599, Final residual = 0.000972737, No Iterations 2
**codeCorrect**
GAMG:  Solving for p, Initial residual = 0.106259, Final residual = 0.00771875, No Iterations 2
time step continuity errors : sum local = 0.00329181, global = 9.74319e-05, cumulative = 0.00037103
**codeCorrect**
ExecutionTime = 0.16 s  ClockTime = 1 s

Time = 9

**codeSetValue**
smoothSolver:  Solving for Ux, Initial residual = 0.560867, Final residual = 0.0278283, No Iterations 2
smoothSolver:  Solving for Uy, Initial residual = 0.0251851, Final residual = 0.000753242, No Iterations 2
**codeCorrect**
GAMG:  Solving for p, Initial residual = 0.0869826, Final residual = 0.00829267, No Iterations 2
time step continuity errors : sum local = 0.00387469, global = 0.000103961, cumulative = 0.000474991
**codeCorrect**
ExecutionTime = 0.16 s  ClockTime = 1 s

Time = 10

 At (0.025 , 0.025 , 0.05 )  Deviation = 6.95113e-310 Body force = (0 , 0 , 0) 
 At (0.075 , 0.025 , 0.05 )  Deviation = 6.95113e-310 Body force = (0 , 0 , 0) 
 At (0.125 , 0.025 , 0.05 )  Deviation = 2.00491e-316 Body force = (0 , 0 , 0) 
 At (0.175 , 0.025 , 0.05 )  Deviation = 2.00491e-316 Body force = (0 , 0 , 0) 
 At (0.225 , 0.025 , 0.05 )  Deviation = 2.85379 Body force = (0 , 0 , 0) 
 At (0.275 , 0.025 , 0.05 )  Deviation = 2.85699 Body force = (0 , 0 , 0) 
 At (0.325 , 0.025 , 0.05 )  Deviation = 2.84544 Body force = (0 , 0 , 0) 
 At (0.375 , 0.025 , 0.05 )  Deviation = 2.85028 Body force = (0 , 0 , 0) 
 At (0.425 , 0.025 , 0.05 )  Deviation = 2.83397 Body force = (0 , 0 , 0) 
 At (0.475 , 0.025 , 0.05 )  Deviation = 2.84012 Body force = (0 , 0 , 0) 
 At (0.525 , 0.025 , 0.05 )  Deviation = 0.151077 Body force = (-7.14037 , -46.903 , -0) 
 At (0.575 , 0.025 , 0.05 )  Deviation = 0.130725 Body force = (-5.3633 , -40.7934 , -0) 
 At (0.625 , 0.025 , 0.05 )  Deviation = 0.113076 Body force = (-4.0257 , -35.4499 , -0) 
 At (0.675 , 0.025 , 0.05 )  Deviation = 0.0977676 Body force = (-3.01642 , -30.7546 , -0) 
 At (0.725 , 0.025 , 0.05 )  Deviation = 0.0845043 Body force = (-2.25757 , -26.6518 , -0) 
 At (0.775 , 0.025 , 0.05 )  Deviation = 0.0730366 Body force = (-1.68941 , -23.0898 , -0) 
 At (0.825 , 0.025 , 0.05 )  Deviation = 0.0631443 Body force = (-1.26529 , -20.0115 , -0) 
 At (0.875 , 0.025 , 0.05 )  Deviation = 0.0546277 Body force = (-0.949154 , -17.3577 , -0) 
 At (0.925 , 0.025 , 0.05 )  Deviation = 0.047307 Body force = (-0.713557 , -15.0723 , -0) 
 At (0.975 , 0.025 , 0.05 )  Deviation = 0.041021 Body force = (-0.537873 , -13.1048 , -0) 
 At (1.025 , 0.025 , 0.05 )  Deviation = 0.0356287 Body force = (-0.406743 , -11.4113 , -0) 
 At (1.075 , 0.025 , 0.05 )  Deviation = 0.0310074 Body force = (-0.308761 , -9.95448 , -0) 
 At (1.125 , 0.025 , 0.05 )  Deviation = 0.0270515 Body force = (-0.235471 , -8.70242 , -0) 
 At (1.175 , 0.025 , 0.05 )  Deviation = 0.0236705 Body force = (-0.180596 , -7.62813 , -0) 
 At (1.225 , 0.025 , 0.05 )  Deviation = 0.0207867 Body force = (-0.139468 , -6.70849 , -0) 
 At (1.275 , 0.025 , 0.05 )  Deviation = 0.0183335 Body force = (-0.108614 , -5.92366 , -0) 
 At (1.325 , 0.025 , 0.05 )  Deviation = 0.0162534 Body force = (-0.0854419 , -5.25641 , -0) 
 At (1.375 , 0.025 , 0.05 )  Deviation = 0.0144956 Body force = (-0.0680068 , -4.69123 , -0) 
 At (1.425 , 0.025 , 0.05 )  Deviation = 0.0130162 Body force = (-0.0548631 , -4.21473 , -0) 
 At (1.475 , 0.025 , 0.05 )  Deviation = 0.0117731 Body force = (-0.0448993 , -3.81353 , -0) 
 At (1.525 , 0.025 , 0.05 )  Deviation = 1.33457 Body force = (0 , 0 , 0) 
 At (1.575 , 0.025 , 0.05 )  Deviation = 1.41606 Body force = (0 , 0 , 0) 
 At (1.625 , 0.025 , 0.05 )  Deviation = 1.16268 Body force = (0 , 0 , 0) 
 At (1.675 , 0.025 , 0.05 )  Deviation = 1.25345 Body force = (0 , 0 , 0) 
 At (1.725 , 0.025 , 0.05 )  Deviation = 0.978862 Body force = (0 , 0 , 0) 
 At (1.775 , 0.025 , 0.05 )  Deviation = 1.07224 Body force = (0 , 0 , 0) 
 At (1.825 , 0.025 , 0.05 )  Deviation = 0.795556 Body force = (0 , 0 , 0) 
 At (1.875 , 0.025 , 0.05 )  Deviation = 0.885765 Body force = (0 , 0 , 0) 
 At (1.925 , 0.025 , 0.05 )  Deviation = 0.622684 Body force = (0 , 0 , 0) 
 At (1.975 , 0.025 , 0.05 )  Deviation = 0.705583 Body force = (0 , 0 , 0) 
 At (0.025 , 0.075 , 0.05 )  Deviation = 0.46679 Body force = (0 , 0 , 0) 
 At (0.075 , 0.075 , 0.05 )  Deviation = 0.539993 Body force = (0 , 0 , 0) 
 At (0.125 , 0.075 , 0.05 )  Deviation = 0.331123 Body force = (0 , 0 , 0) 
 At (0.175 , 0.075 , 0.05 )  Deviation = 0.393783 Body force = (0 , 0 , 0) 
 At (0.225 , 0.075 , 0.05 )  Deviation = 0.216115 Body force = (0 , 0 , 0) 
 At (0.275 , 0.075 , 0.05 )  Deviation = 0.26865 Body force = (0 , 0 , 0) 
 At (0.325 , 0.075 , 0.05 )  Deviation = 0.120089 Body force = (0 , 0 , 0) 
 At (0.375 , 0.075 , 0.05 )  Deviation = 0.163733 Body force = (0 , 0 , 0) 
 At (0.425 , 0.075 , 0.05 )  Deviation = 0.0402421 Body force = (0 , 0 , 0) 
 At (0.475 , 0.075 , 0.05 )  Deviation = 0.0765322 Body force = (0 , 0 , 0) 
 At (0.525 , 0.075 , 0.05 )  Deviation = 0.151076 Body force = (-7.14031 , -46.903 , -0) 
 At (0.575 , 0.075 , 0.05 )  Deviation = 0.130729 Body force = (-5.36369 , -40.7951 , -0) 
 At (0.625 , 0.075 , 0.05 )  Deviation = 0.113082 Body force = (-4.02617 , -35.4521 , -0) 
 At (0.675 , 0.075 , 0.05 )  Deviation = 0.097772 Body force = (-3.01671 , -30.7561 , -0) 
 At (0.725 , 0.075 , 0.05 )  Deviation = 0.0845042 Body force = (-2.25756 , -26.6517 , -0) 
 At (0.775 , 0.075 , 0.05 )  Deviation = 0.073032 Body force = (-1.68919 , -23.0883 , -0) 
 At (0.825 , 0.075 , 0.05 )  Deviation = 0.0631368 Body force = (-1.26499 , -20.0091 , -0) 
 At (0.875 , 0.075 , 0.05 )  Deviation = 0.0546201 Body force = (-0.948886 , -17.3552 , -0) 
 At (0.925 , 0.075 , 0.05 )  Deviation = 0.0473009 Body force = (-0.713372 , -15.0703 , -0) 
 At (0.975 , 0.075 , 0.05 )  Deviation = 0.0410176 Body force = (-0.537784 , -13.1037 , -0) 
 At (1.025 , 0.075 , 0.05 )  Deviation = 0.035628 Body force = (-0.406728 , -11.4111 , -0) 
 At (1.075 , 0.075 , 0.05 )  Deviation = 0.0310088 Body force = (-0.308789 , -9.95493 , -0) 
 At (1.125 , 0.075 , 0.05 )  Deviation = 0.027054 Body force = (-0.235514 , -8.70321 , -0) 
 At (1.175 , 0.075 , 0.05 )  Deviation = 0.023673 Body force = (-0.180633 , -7.62891 , -0) 
 At (1.225 , 0.075 , 0.05 )  Deviation = 0.0207884 Body force = (-0.13949 , -6.70903 , -0) 
 At (1.275 , 0.075 , 0.05 )  Deviation = 0.0183343 Body force = (-0.108623 , -5.92391 , -0) 
 At (1.325 , 0.075 , 0.05 )  Deviation = 0.0162533 Body force = (-0.0854406 , -5.25637 , -0) 
 At (1.375 , 0.075 , 0.05 )  Deviation = 0.0144943 Body force = (-0.0679949 , -4.69082 , -0) 
 At (1.425 , 0.075 , 0.05 )  Deviation = 0.0130131 Body force = (-0.0548366 , -4.21371 , -0) 
 At (1.475 , 0.075 , 0.05 )  Deviation = 0.0117678 Body force = (-0.0448584 , -3.81179 , -0) 
 At (1.525 , 0.075 , 0.05 )  Deviation = -0.207165 Body force = (0 , 0 , 0) 
 At (1.575 , 0.075 , 0.05 )  Deviation = -0.253331 Body force = (0 , 0 , 0) 
 At (1.625 , 0.075 , 0.05 )  Deviation = -0.108415 Body force = (0 , 0 , 0) 
 At (1.675 , 0.075 , 0.05 )  Deviation = -0.161597 Body force = (0 , 0 , 0) 
 At (1.725 , 0.075 , 0.05 )  Deviation = -0.0555693 Body force = (0 , 0 , 0) 
 At (1.775 , 0.075 , 0.05 )  Deviation = 2.86155 Body force = (0 , 0 , 0) 
 At (1.825 , 0.075 , 0.05 )  Deviation = 2.86139 Body force = (0 , 0 , 0) 
 At (1.875 , 0.075 , 0.05 )  Deviation = 2.86163 Body force = (0 , 0 , 0) 
 At (1.925 , 0.075 , 0.05 )  Deviation = 2.86156 Body force = (0 , 0 , 0) 
 At (1.975 , 0.075 , 0.05 )  Deviation = 2.86101 Body force = (0 , 0 , 0) 
 At (0.025 , 0.125 , 0.05 )  Deviation = 2.86145 Body force = (0 , 0 , 0) 
 At (0.075 , 0.125 , 0.05 )  Deviation = 2.85864 Body force = (0 , 0 , 0) 
 At (0.125 , 0.125 , 0.05 )  Deviation = 2.86014 Body force = (0 , 0 , 0) 
 At (0.175 , 0.125 , 0.05 )  Deviation = 2.85348 Body force = (0 , 0 , 0) 
 At (0.225 , 0.125 , 0.05 )  Deviation = 2.85649 Body force = (0 , 0 , 0) 
 At (0.275 , 0.125 , 0.05 )  Deviation = 2.84496 Body force = (0 , 0 , 0) 
 At (0.325 , 0.125 , 0.05 )  Deviation = 2.84957 Body force = (0 , 0 , 0) 
 At (0.375 , 0.125 , 0.05 )  Deviation = 2.83338 Body force = (0 , 0 , 0) 
 At (0.425 , 0.125 , 0.05 )  Deviation = 2.83925 Body force = (0 , 0 , 0) 
 At (0.475 , 0.125 , 0.05 )  Deviation = 2.81921 Body force = (0 , 0 , 0) 
 At (0.525 , 0.125 , 0.05 )  Deviation = 0.15108 Body force = (-7.14072 , -46.9044 , -0) 
 At (0.575 , 0.125 , 0.05 )  Deviation = 0.130731 Body force = (-5.36387 , -40.7958 , -0) 
 At (0.625 , 0.125 , 0.05 )  Deviation = 0.113082 Body force = (-4.02614 , -35.452 , -0) 
 At (0.675 , 0.125 , 0.05 )  Deviation = 0.0977699 Body force = (-3.01657 , -30.7554 , -0) 
 At (0.725 , 0.125 , 0.05 )  Deviation = 0.0845017 Body force = (-2.25742 , -26.6509 , -0) 
 At (0.775 , 0.125 , 0.05 )  Deviation = 0.0730304 Body force = (-1.68911 , -23.0877 , -0) 
 At (0.825 , 0.125 , 0.05 )  Deviation = 0.0631366 Body force = (-1.26498 , -20.009 , -0) 
 At (0.875 , 0.125 , 0.05 )  Deviation = 0.0546211 Body force = (-0.948924 , -17.3556 , -0) 
 At (0.925 , 0.125 , 0.05 )  Deviation = 0.0473029 Body force = (-0.713433 , -15.071 , -0) 
 At (0.975 , 0.125 , 0.05 )  Deviation = 0.04102 Body force = (-0.537848 , -13.1045 , -0) 
 At (1.025 , 0.125 , 0.05 )  Deviation = 0.0356304 Body force = (-0.406782 , -11.4119 , -0) 
 At (1.075 , 0.125 , 0.05 )  Deviation = 0.0310108 Body force = (-0.30883 , -9.95557 , -0) 
 At (1.125 , 0.125 , 0.05 )  Deviation = 0.0270555 Body force = (-0.23554 , -8.70368 , -0) 
 At (1.175 , 0.125 , 0.05 )  Deviation = 0.0236739 Body force = (-0.180647 , -7.62919 , -0) 
 At (1.225 , 0.125 , 0.05 )  Deviation = 0.0207888 Body force = (-0.139495 , -6.70914 , -0) 
 At (1.275 , 0.125 , 0.05 )  Deviation = 0.0183341 Body force = (-0.108621 , -5.92385 , -0) 
 At (1.325 , 0.125 , 0.05 )  Deviation = 0.0162526 Body force = (-0.0854334 , -5.25614 , -0) 
 At (1.375 , 0.125 , 0.05 )  Deviation = 0.0144932 Body force = (-0.0679848 , -4.69047 , -0) 
 At (1.425 , 0.125 , 0.05 )  Deviation = 0.0130121 Body force = (-0.0548281 , -4.21338 , -0) 
 At (1.475 , 0.125 , 0.05 )  Deviation = 0.0117677 Body force = (-0.0448575 , -3.81174 , -0) 
 At (1.525 , 0.125 , 0.05 )  Deviation = 1.4162 Body force = (0 , 0 , 0) 
 At (1.575 , 0.125 , 0.05 )  Deviation = 1.16301 Body force = (0 , 0 , 0) 
 At (1.625 , 0.125 , 0.05 )  Deviation = 1.25358 Body force = (0 , 0 , 0) 
 At (1.675 , 0.125 , 0.05 )  Deviation = 0.979143 Body force = (0 , 0 , 0) 
 At (1.725 , 0.125 , 0.05 )  Deviation = 1.07236 Body force = (0 , 0 , 0) 
 At (1.775 , 0.125 , 0.05 )  Deviation = 0.795792 Body force = (0 , 0 , 0) 
 At (1.825 , 0.125 , 0.05 )  Deviation = 0.885902 Body force = (0 , 0 , 0) 
 At (1.875 , 0.125 , 0.05 )  Deviation = 0.622891 Body force = (0 , 0 , 0) 
 At (1.925 , 0.125 , 0.05 )  Deviation = 0.705749 Body force = (0 , 0 , 0) 
 At (1.975 , 0.125 , 0.05 )  Deviation = 0.466986 Body force = (0 , 0 , 0) 
 At (0.025 , 0.175 , 0.05 )  Deviation = 0.540193 Body force = (0 , 0 , 0) 
 At (0.075 , 0.175 , 0.05 )  Deviation = 0.33131 Body force = (0 , 0 , 0) 
 At (0.125 , 0.175 , 0.05 )  Deviation = 0.394016 Body force = (0 , 0 , 0) 
 At (0.175 , 0.175 , 0.05 )  Deviation = 0.216268 Body force = (0 , 0 , 0) 
 At (0.225 , 0.175 , 0.05 )  Deviation = 0.268883 Body force = (0 , 0 , 0) 
 At (0.275 , 0.175 , 0.05 )  Deviation = 0.120176 Body force = (0 , 0 , 0) 
 At (0.325 , 0.175 , 0.05 )  Deviation = 0.163921 Body force = (0 , 0 , 0) 
 At (0.375 , 0.175 , 0.05 )  Deviation = 0.0402856 Body force = (0 , 0 , 0) 
 At (0.425 , 0.175 , 0.05 )  Deviation = 0.076642 Body force = (0 , 0 , 0) 
 At (0.475 , 0.175 , 0.05 )  Deviation = -0.0259827 Body force = (0 , 0 , 0) 
 At (0.525 , 0.175 , 0.05 )  Deviation = 0.151081 Body force = (-7.14086 , -46.9049 , -0) 
 At (0.575 , 0.175 , 0.05 )  Deviation = 0.130731 Body force = (-5.36387 , -40.7958 , -0) 
 At (0.625 , 0.175 , 0.05 )  Deviation = 0.113081 Body force = (-4.02607 , -35.4517 , -0) 
 At (0.675 , 0.175 , 0.05 )  Deviation = 0.0977687 Body force = (-3.0165 , -30.755 , -0) 
 At (0.725 , 0.175 , 0.05 )  Deviation = 0.0845011 Body force = (-2.25739 , -26.6507 , -0) 
 At (0.775 , 0.175 , 0.05 )  Deviation = 0.0730304 Body force = (-1.68911 , -23.0877 , -0) 
 At (0.825 , 0.175 , 0.05 )  Deviation = 0.0631372 Body force = (-1.265 , -20.0092 , -0) 
 At (0.875 , 0.175 , 0.05 )  Deviation = 0.0546218 Body force = (-0.948949 , -17.3558 , -0) 
 At (0.925 , 0.175 , 0.05 )  Deviation = 0.0473035 Body force = (-0.713453 , -15.0712 , -0) 
 At (0.975 , 0.175 , 0.05 )  Deviation = 0.0410205 Body force = (-0.53786 , -13.1046 , -0) 
 At (1.025 , 0.175 , 0.05 )  Deviation = 0.0356307 Body force = (-0.406788 , -11.412 , -0) 
 At (1.075 , 0.175 , 0.05 )  Deviation = 0.031011 Body force = (-0.308832 , -9.9556 , -0) 
 At (1.125 , 0.175 , 0.05 )  Deviation = 0.0270556 Body force = (-0.23554 , -8.70368 , -0) 
 At (1.175 , 0.175 , 0.05 )  Deviation = 0.023674 Body force = (-0.180647 , -7.62919 , -0) 
 At (1.225 , 0.175 , 0.05 )  Deviation = 0.0207889 Body force = (-0.139496 , -6.70914 , -0) 
 At (1.275 , 0.175 , 0.05 )  Deviation = 0.0183342 Body force = (-0.108621 , -5.92385 , -0) 
 At (1.325 , 0.175 , 0.05 )  Deviation = 0.0162526 Body force = (-0.085433 , -5.25612 , -0) 
 At (1.375 , 0.175 , 0.05 )  Deviation = 0.0144932 Body force = (-0.0679842 , -4.69044 , -0) 
 At (1.425 , 0.175 , 0.05 )  Deviation = 0.0130123 Body force = (-0.0548296 , -4.21343 , -0) 
 At (1.475 , 0.175 , 0.05 )  Deviation = 0.0117684 Body force = (-0.0448629 , -3.81197 , -0) 
 At (1.525 , 0.175 , 0.05 )  Deviation = -0.253851 Body force = (0 , 0 , 0) 
 At (1.575 , 0.175 , 0.05 )  Deviation = -0.108751 Body force = (0 , 0 , 0) 
 At (1.625 , 0.175 , 0.05 )  Deviation = -0.161928 Body force = (0 , 0 , 0) 
 At (1.675 , 0.175 , 0.05 )  Deviation = -0.0556658 Body force = (0 , 0 , 0) 
 At (1.725 , 0.175 , 0.05 )  Deviation = 2.8614 Body force = (0 , 0 , 0) 
 At (1.775 , 0.175 , 0.05 )  Deviation = 2.8612 Body force = (0 , 0 , 0) 
 At (1.825 , 0.175 , 0.05 )  Deviation = 2.86138 Body force = (0 , 0 , 0) 
 At (1.875 , 0.175 , 0.05 )  Deviation = 2.86131 Body force = (0 , 0 , 0) 
 At (1.925 , 0.175 , 0.05 )  Deviation = 2.86059 Body force = (0 , 0 , 0) 
 At (1.975 , 0.175 , 0.05 )  Deviation = 2.86106 Body force = (0 , 0 , 0) 
 At (0.025 , 0.225 , 0.05 )  Deviation = 2.85799 Body force = (0 , 0 , 0) 
 At (0.075 , 0.225 , 0.05 )  Deviation = 2.85954 Body force = (0 , 0 , 0) 
 At (0.125 , 0.225 , 0.05 )  Deviation = 2.85258 Body force = (0 , 0 , 0) 
 At (0.175 , 0.225 , 0.05 )  Deviation = 2.85564 Body force = (0 , 0 , 0) 
 At (0.225 , 0.225 , 0.05 )  Deviation = 2.84385 Body force = (0 , 0 , 0) 
 At (0.275 , 0.225 , 0.05 )  Deviation = 2.8485 Body force = (0 , 0 , 0) 
 At (0.325 , 0.225 , 0.05 )  Deviation = 2.83212 Body force = (0 , 0 , 0) 
 At (0.375 , 0.225 , 0.05 )  Deviation = 2.838 Body force = (0 , 0 , 0) 
 At (0.425 , 0.225 , 0.05 )  Deviation = 2.81786 Body force = (0 , 0 , 0) 
 At (0.475 , 0.225 , 0.05 )  Deviation = 2.82493 Body force = (0 , 0 , 0) 
 At (0.525 , 0.225 , 0.05 )  Deviation = 0.151081 Body force = (-7.14091 , -46.9052 , -0) 
 At (0.575 , 0.225 , 0.05 )  Deviation = 0.130731 Body force = (-5.36386 , -40.7958 , -0) 
 At (0.625 , 0.225 , 0.05 )  Deviation = 0.11308 Body force = (-4.02602 , -35.4515 , -0) 
 At (0.675 , 0.225 , 0.05 )  Deviation = 0.0977679 Body force = (-3.01644 , -30.7547 , -0) 
 At (0.725 , 0.225 , 0.05 )  Deviation = 0.0845002 Body force = (-2.25734 , -26.6504 , -0) 
 At (0.775 , 0.225 , 0.05 )  Deviation = 0.0730295 Body force = (-1.68907 , -23.0874 , -0) 
 At (0.825 , 0.225 , 0.05 )  Deviation = 0.0631361 Body force = (-1.26496 , -20.0088 , -0) 
 At (0.875 , 0.225 , 0.05 )  Deviation = 0.0546207 Body force = (-0.948912 , -17.3554 , -0) 
 At (0.925 , 0.225 , 0.05 )  Deviation = 0.0473024 Body force = (-0.71342 , -15.0709 , -0) 
 At (0.975 , 0.225 , 0.05 )  Deviation = 0.0410194 Body force = (-0.537832 , -13.1043 , -0) 
 At (1.025 , 0.225 , 0.05 )  Deviation = 0.0356298 Body force = (-0.406768 , -11.4117 , -0) 
 At (1.075 , 0.225 , 0.05 )  Deviation = 0.0310103 Body force = (-0.308819 , -9.95539 , -0) 
 At (1.125 , 0.225 , 0.05 )  Deviation = 0.0270552 Body force = (-0.235533 , -8.70354 , -0) 
 At (1.175 , 0.225 , 0.05 )  Deviation = 0.0236738 Body force = (-0.180644 , -7.62911 , -0) 
 At (1.225 , 0.225 , 0.05 )  Deviation = 0.0207889 Body force = (-0.139495 , -6.70912 , -0) 
 At (1.275 , 0.225 , 0.05 )  Deviation = 0.0183342 Body force = (-0.108621 , -5.92385 , -0) 
 At (1.325 , 0.225 , 0.05 )  Deviation = 0.0162526 Body force = (-0.0854333 , -5.25612 , -0) 
 At (1.375 , 0.225 , 0.05 )  Deviation = 0.0144932 Body force = (-0.0679844 , -4.69044 , -0) 
 At (1.425 , 0.225 , 0.05 )  Deviation = 0.0130124 Body force = (-0.0548304 , -4.21346 , -0) 
 At (1.475 , 0.225 , 0.05 )  Deviation = 0.0117687 Body force = (-0.0448651 , -3.81206 , -0) 
 At (1.525 , 0.225 , 0.05 )  Deviation = 1.16292 Body force = (0 , 0 , 0) 
 At (1.575 , 0.225 , 0.05 )  Deviation = 1.2534 Body force = (0 , 0 , 0) 
 At (1.625 , 0.225 , 0.05 )  Deviation = 0.979119 Body force = (0 , 0 , 0) 
 At (1.675 , 0.225 , 0.05 )  Deviation = 1.07226 Body force = (0 , 0 , 0) 
 At (1.725 , 0.225 , 0.05 )  Deviation = 0.795859 Body force = (0 , 0 , 0) 
 At (1.775 , 0.225 , 0.05 )  Deviation = 0.885896 Body force = (0 , 0 , 0) 
 At (1.825 , 0.225 , 0.05 )  Deviation = 0.62305 Body force = (0 , 0 , 0) 
 At (1.875 , 0.225 , 0.05 )  Deviation = 0.705852 Body force = (0 , 0 , 0) 
 At (1.925 , 0.225 , 0.05 )  Deviation = 0.467222 Body force = (0 , 0 , 0) 
 At (1.975 , 0.225 , 0.05 )  Deviation = 0.540387 Body force = (0 , 0 , 0) 
 At (0.025 , 0.275 , 0.05 )  Deviation = 0.331589 Body force = (0 , 0 , 0) 
 At (0.075 , 0.275 , 0.05 )  Deviation = 0.39428 Body force = (0 , 0 , 0) 
 At (0.125 , 0.275 , 0.05 )  Deviation = 0.216536 Body force = (0 , 0 , 0) 
 At (0.175 , 0.275 , 0.05 )  Deviation = 0.269167 Body force = (0 , 0 , 0) 
 At (0.225 , 0.275 , 0.05 )  Deviation = 0.120387 Body force = (0 , 0 , 0) 
 At (0.275 , 0.275 , 0.05 )  Deviation = 0.164169 Body force = (0 , 0 , 0) 
 At (0.325 , 0.275 , 0.05 )  Deviation = 0.0404186 Body force = (0 , 0 , 0) 
 At (0.375 , 0.275 , 0.05 )  Deviation = 0.0768097 Body force = (0 , 0 , 0) 
 At (0.425 , 0.275 , 0.05 )  Deviation = -0.0258974 Body force = (0 , 0 , 0) 
 At (0.475 , 0.275 , 0.05 )  Deviation = 0.00414595 Body force = (0 , 0 , 0) 
 At (0.525 , 0.275 , 0.05 )  Deviation = 0.151082 Body force = (-7.14102 , -46.9055 , -0) 
 At (0.575 , 0.275 , 0.05 )  Deviation = 0.130731 Body force = (-5.36389 , -40.796 , -0) 
 At (0.625 , 0.275 , 0.05 )  Deviation = 0.11308 Body force = (-4.02601 , -35.4514 , -0) 
 At (0.675 , 0.275 , 0.05 )  Deviation = 0.0977674 Body force = (-3.0164 , -30.7545 , -0) 
 At (0.725 , 0.275 , 0.05 )  Deviation = 0.0844994 Body force = (-2.25729 , -26.6501 , -0) 
 At (0.775 , 0.275 , 0.05 )  Deviation = 0.0730285 Body force = (-1.68902 , -23.0871 , -0) 
 At (0.825 , 0.275 , 0.05 )  Deviation = 0.0631351 Body force = (-1.26492 , -20.0085 , -0) 
 At (0.875 , 0.275 , 0.05 )  Deviation = 0.0546197 Body force = (-0.948874 , -17.3551 , -0) 
 At (0.925 , 0.275 , 0.05 )  Deviation = 0.0473013 Body force = (-0.713388 , -15.0705 , -0) 
 At (0.975 , 0.275 , 0.05 )  Deviation = 0.0410184 Body force = (-0.537807 , -13.104 , -0) 
 At (1.025 , 0.275 , 0.05 )  Deviation = 0.035629 Body force = (-0.40675 , -11.4114 , -0) 
 At (1.075 , 0.275 , 0.05 )  Deviation = 0.0310097 Body force = (-0.308807 , -9.9552 , -0) 
 At (1.125 , 0.275 , 0.05 )  Deviation = 0.0270548 Body force = (-0.235526 , -8.70341 , -0) 
 At (1.175 , 0.275 , 0.05 )  Deviation = 0.0236736 Body force = (-0.18064 , -7.62903 , -0) 
 At (1.225 , 0.275 , 0.05 )  Deviation = 0.0207888 Body force = (-0.139494 , -6.70909 , -0) 
 At (1.275 , 0.275 , 0.05 )  Deviation = 0.0183343 Body force = (-0.108622 , -5.92386 , -0) 
 At (1.325 , 0.275 , 0.05 )  Deviation = 0.0162528 Body force = (-0.0854346 , -5.25616 , -0) 
 At (1.375 , 0.275 , 0.05 )  Deviation = 0.0144934 Body force = (-0.0679859 , -4.69049 , -0) 
 At (1.425 , 0.275 , 0.05 )  Deviation = 0.0130126 Body force = (-0.0548321 , -4.21352 , -0) 
 At (1.475 , 0.275 , 0.05 )  Deviation = 0.011769 Body force = (-0.0448673 , -3.81215 , -0) 
 At (1.525 , 0.275 , 0.05 )  Deviation = -0.108842 Body force = (0 , 0 , 0) 
 At (1.575 , 0.275 , 0.05 )  Deviation = -0.162069 Body force = (0 , 0 , 0) 
 At (1.625 , 0.275 , 0.05 )  Deviation = -0.0556883 Body force = (0 , 0 , 0) 
 At (1.675 , 0.275 , 0.05 )  Deviation = 2.86111 Body force = (0 , 0 , 0) 
 At (1.725 , 0.275 , 0.05 )  Deviation = 2.8609 Body force = (0 , 0 , 0) 
 At (1.775 , 0.275 , 0.05 )  Deviation = 2.86098 Body force = (0 , 0 , 0) 
 At (1.825 , 0.275 , 0.05 )  Deviation = 2.86094 Body force = (0 , 0 , 0) 
 At (1.875 , 0.275 , 0.05 )  Deviation = 2.86001 Body force = (0 , 0 , 0) 
 At (1.925 , 0.275 , 0.05 )  Deviation = 2.86056 Body force = (0 , 0 , 0) 
 At (1.975 , 0.275 , 0.05 )  Deviation = 2.8572 Body force = (0 , 0 , 0) 
 At (0.025 , 0.325 , 0.05 )  Deviation = 2.85886 Body force = (0 , 0 , 0) 
 At (0.075 , 0.325 , 0.05 )  Deviation = 2.85156 Body force = (0 , 0 , 0) 
 At (0.125 , 0.325 , 0.05 )  Deviation = 2.85475 Body force = (0 , 0 , 0) 
 At (0.175 , 0.325 , 0.05 )  Deviation = 2.84265 Body force = (0 , 0 , 0) 
 At (0.225 , 0.325 , 0.05 )  Deviation = 2.84741 Body force = (0 , 0 , 0) 
 At (0.275 , 0.325 , 0.05 )  Deviation = 2.83082 Body force = (0 , 0 , 0) 
 At (0.325 , 0.325 , 0.05 )  Deviation = 2.83677 Body force = (0 , 0 , 0) 
 At (0.375 , 0.325 , 0.05 )  Deviation = 2.81651 Body force = (0 , 0 , 0) 
 At (0.425 , 0.325 , 0.05 )  Deviation = 2.82364 Body force = (0 , 0 , 0) 
 At (0.475 , 0.325 , 0.05 )  Deviation = 2.80546 Body force = (0 , 0 , 0) 
 At (0.525 , 0.325 , 0.05 )  Deviation = 0.151083 Body force = (-7.14109 , -46.9058 , -0) 
 At (0.575 , 0.325 , 0.05 )  Deviation = 0.130731 Body force = (-5.36391 , -40.796 , -0) 
 At (0.625 , 0.325 , 0.05 )  Deviation = 0.11308 Body force = (-4.02599 , -35.4513 , -0) 
 At (0.675 , 0.325 , 0.05 )  Deviation = 0.0977669 Body force = (-3.01637 , -30.7543 , -0) 
 At (0.725 , 0.325 , 0.05 )  Deviation = 0.0844988 Body force = (-2.25725 , -26.6498 , -0) 
 At (0.775 , 0.325 , 0.05 )  Deviation = 0.0730278 Body force = (-1.68898 , -23.0868 , -0) 
 At (0.825 , 0.325 , 0.05 )  Deviation = 0.0631343 Body force = (-1.26489 , -20.0082 , -0) 
 At (0.875 , 0.325 , 0.05 )  Deviation = 0.0546188 Body force = (-0.948844 , -17.3548 , -0) 
 At (0.925 , 0.325 , 0.05 )  Deviation = 0.0473004 Body force = (-0.713362 , -15.0703 , -0) 
 At (0.975 , 0.325 , 0.05 )  Deviation = 0.0410176 Body force = (-0.537786 , -13.1038 , -0) 
 At (1.025 , 0.325 , 0.05 )  Deviation = 0.0356282 Body force = (-0.406733 , -11.4112 , -0) 
 At (1.075 , 0.325 , 0.05 )  Deviation = 0.0310091 Body force = (-0.308795 , -9.95501 , -0) 
 At (1.125 , 0.325 , 0.05 )  Deviation = 0.0270543 Body force = (-0.235518 , -8.70326 , -0) 
 At (1.175 , 0.325 , 0.05 )  Deviation = 0.0236733 Body force = (-0.180636 , -7.62894 , -0) 
 At (1.225 , 0.325 , 0.05 )  Deviation = 0.0207887 Body force = (-0.139493 , -6.70905 , -0) 
 At (1.275 , 0.325 , 0.05 )  Deviation = 0.0183344 Body force = (-0.108623 , -5.92387 , -0) 
 At (1.325 , 0.325 , 0.05 )  Deviation = 0.0162529 Body force = (-0.0854363 , -5.2562 , -0) 
 At (1.375 , 0.325 , 0.05 )  Deviation = 0.0144937 Body force = (-0.0679884 , -4.69057 , -0) 
 At (1.425 , 0.325 , 0.05 )  Deviation = 0.013013 Body force = (-0.0548352 , -4.21364 , -0) 
 At (1.475 , 0.325 , 0.05 )  Deviation = 0.0117694 Body force = (-0.0448707 , -3.8123 , -0) 
 At (1.525 , 0.325 , 0.05 )  Deviation = 1.25315 Body force = (0 , 0 , 0) 
 At (1.575 , 0.325 , 0.05 )  Deviation = 0.979033 Body force = (0 , 0 , 0) 
 At (1.625 , 0.325 , 0.05 )  Deviation = 1.07209 Body force = (0 , 0 , 0) 
 At (1.675 , 0.325 , 0.05 )  Deviation = 0.795889 Body force = (0 , 0 , 0) 
 At (1.725 , 0.325 , 0.05 )  Deviation = 0.885832 Body force = (0 , 0 , 0) 
 At (1.775 , 0.325 , 0.05 )  Deviation = 0.623188 Body force = (0 , 0 , 0) 
 At (1.825 , 0.325 , 0.05 )  Deviation = 0.705893 Body force = (0 , 0 , 0) 
 At (1.875 , 0.325 , 0.05 )  Deviation = 0.467445 Body force = (0 , 0 , 0) 
 At (1.925 , 0.325 , 0.05 )  Deviation = 0.540526 Body force = (0 , 0 , 0) 
 At (1.975 , 0.325 , 0.05 )  Deviation = 0.331857 Body force = (0 , 0 , 0) 
 At (0.025 , 0.375 , 0.05 )  Deviation = 0.394491 Body force = (0 , 0 , 0) 
 At (0.075 , 0.375 , 0.05 )  Deviation = 0.216799 Body force = (0 , 0 , 0) 
 At (0.125 , 0.375 , 0.05 )  Deviation = 0.269412 Body force = (0 , 0 , 0) 
 At (0.175 , 0.375 , 0.05 )  Deviation = 0.120592 Body force = (0 , 0 , 0) 
 At (0.225 , 0.375 , 0.05 )  Deviation = 0.164395 Body force = (0 , 0 , 0) 
 At (0.275 , 0.375 , 0.05 )  Deviation = 0.040537 Body force = (0 , 0 , 0) 
 At (0.325 , 0.375 , 0.05 )  Deviation = 0.0769691 Body force = (0 , 0 , 0) 
 At (0.375 , 0.375 , 0.05 )  Deviation = -0.0258687 Body force = (0 , 0 , 0) 
 At (0.425 , 0.375 , 0.05 )  Deviation = 0.00421515 Body force = (0 , 0 , 0) 
 At (0.475 , 0.375 , 0.05 )  Deviation = -0.0818756 Body force = (0 , 0 , 0) 
 At (0.525 , 0.375 , 0.05 )  Deviation = 0.151084 Body force = (-7.14118 , -46.9061 , -0) 
 At (0.575 , 0.375 , 0.05 )  Deviation = 0.130732 Body force = (-5.36394 , -40.7961 , -0) 
 At (0.625 , 0.375 , 0.05 )  Deviation = 0.113079 Body force = (-4.02598 , -35.4513 , -0) 
 At (0.675 , 0.375 , 0.05 )  Deviation = 0.0977665 Body force = (-3.01635 , -30.7542 , -0) 
 At (0.725 , 0.375 , 0.05 )  Deviation = 0.0844983 Body force = (-2.25722 , -26.6496 , -0) 
 At (0.775 , 0.375 , 0.05 )  Deviation = 0.0730271 Body force = (-1.68895 , -23.0866 , -0) 
 At (0.825 , 0.375 , 0.05 )  Deviation = 0.0631335 Body force = (-1.26486 , -20.008 , -0) 
 At (0.875 , 0.375 , 0.05 )  Deviation = 0.054618 Body force = (-0.948816 , -17.3546 , -0) 
 At (0.925 , 0.375 , 0.05 )  Deviation = 0.0472996 Body force = (-0.713338 , -15.07 , -0) 
 At (0.975 , 0.375 , 0.05 )  Deviation = 0.0410168 Body force = (-0.537766 , -13.1035 , -0) 
 At (1.025 , 0.375 , 0.05 )  Deviation = 0.0356275 Body force = (-0.406717 , -11.411 , -0) 
 At (1.075 , 0.375 , 0.05 )  Deviation = 0.0310084 Body force = (-0.308782 , -9.9548 , -0) 
 At (1.125 , 0.375 , 0.05 )  Deviation = 0.0270538 Body force = (-0.235509 , -8.70309 , -0) 
 At (1.175 , 0.375 , 0.05 )  Deviation = 0.0236729 Body force = (-0.18063 , -7.6288 , -0) 
 At (1.225 , 0.375 , 0.05 )  Deviation = 0.0207885 Body force = (-0.139489 , -6.70896 , -0) 
 At (1.275 , 0.375 , 0.05 )  Deviation = 0.0183343 Body force = (-0.108622 , -5.92384 , -0) 
 At (1.325 , 0.375 , 0.05 )  Deviation = 0.0162531 Body force = (-0.0854376 , -5.25624 , -0) 
 At (1.375 , 0.375 , 0.05 )  Deviation = 0.014494 Body force = (-0.0679911 , -4.69066 , -0) 
 At (1.425 , 0.375 , 0.05 )  Deviation = 0.0130134 Body force = (-0.0548386 , -4.21377 , -0) 
 At (1.475 , 0.375 , 0.05 )  Deviation = 0.01177 Body force = (-0.0448746 , -3.81246 , -0) 
 At (1.525 , 0.375 , 0.05 )  Deviation = -0.162171 Body force = (0 , 0 , 0) 
 At (1.575 , 0.375 , 0.05 )  Deviation = -0.0557197 Body force = (0 , 0 , 0) 
 At (1.625 , 0.375 , 0.05 )  Deviation = 2.86074 Body force = (0 , 0 , 0) 
 At (1.675 , 0.375 , 0.05 )  Deviation = 2.86055 Body force = (0 , 0 , 0) 
 At (1.725 , 0.375 , 0.05 )  Deviation = 2.86052 Body force = (0 , 0 , 0) 
 At (1.775 , 0.375 , 0.05 )  Deviation = 2.86053 Body force = (0 , 0 , 0) 
 At (1.825 , 0.375 , 0.05 )  Deviation = 2.85941 Body force = (0 , 0 , 0) 
 At (1.875 , 0.375 , 0.05 )  Deviation = 2.86004 Body force = (0 , 0 , 0) 
 At (1.925 , 0.375 , 0.05 )  Deviation = 2.85642 Body force = (0 , 0 , 0) 
 At (1.975 , 0.375 , 0.05 )  Deviation = 2.85819 Body force = (0 , 0 , 0) 
 At (0.025 , 0.425 , 0.05 )  Deviation = 2.85059 Body force = (0 , 0 , 0) 
 At (0.075 , 0.425 , 0.05 )  Deviation = 2.8539 Body force = (0 , 0 , 0) 
 At (0.125 , 0.425 , 0.05 )  Deviation = 2.84153 Body force = (0 , 0 , 0) 
 At (0.175 , 0.425 , 0.05 )  Deviation = 2.84638 Body force = (0 , 0 , 0) 
 At (0.225 , 0.425 , 0.05 )  Deviation = 2.8296 Body force = (0 , 0 , 0) 
 At (0.275 , 0.425 , 0.05 )  Deviation = 2.83564 Body force = (0 , 0 , 0) 
 At (0.325 , 0.425 , 0.05 )  Deviation = 2.81528 Body force = (0 , 0 , 0) 
 At (0.375 , 0.425 , 0.05 )  Deviation = 2.82246 Body force = (0 , 0 , 0) 
 At (0.425 , 0.425 , 0.05 )  Deviation = 2.80428 Body force = (0 , 0 , 0) 
 At (0.475 , 0.425 , 0.05 )  Deviation = 2.807 Body force = (0 , 0 , 0) 
 At (0.525 , 0.425 , 0.05 )  Deviation = 0.151085 Body force = (-7.14127 , -46.9064 , -0) 
 At (0.575 , 0.425 , 0.05 )  Deviation = 0.130732 Body force = (-5.36396 , -40.7962 , -0) 
 At (0.625 , 0.425 , 0.05 )  Deviation = 0.113079 Body force = (-4.02598 , -35.4512 , -0) 
 At (0.675 , 0.425 , 0.05 )  Deviation = 0.0977661 Body force = (-3.01632 , -30.754 , -0) 
 At (0.725 , 0.425 , 0.05 )  Deviation = 0.0844977 Body force = (-2.25719 , -26.6494 , -0) 
 At (0.775 , 0.425 , 0.05 )  Deviation = 0.0730264 Body force = (-1.68892 , -23.0864 , -0) 
 At (0.825 , 0.425 , 0.05 )  Deviation = 0.0631328 Body force = (-1.26483 , -20.0077 , -0) 
 At (0.875 , 0.425 , 0.05 )  Deviation = 0.0546172 Body force = (-0.948789 , -17.3543 , -0) 
 At (0.925 , 0.425 , 0.05 )  Deviation = 0.0472988 Body force = (-0.713315 , -15.0698 , -0) 
 At (0.975 , 0.425 , 0.05 )  Deviation = 0.0410161 Body force = (-0.537746 , -13.1033 , -0) 
 At (1.025 , 0.425 , 0.05 )  Deviation = 0.0356267 Body force = (-0.4067 , -11.4108 , -0) 
 At (1.075 , 0.425 , 0.05 )  Deviation = 0.0310078 Body force = (-0.308769 , -9.95459 , -0) 
 At (1.125 , 0.425 , 0.05 )  Deviation = 0.0270532 Body force = (-0.235499 , -8.7029 , -0) 
 At (1.175 , 0.425 , 0.05 )  Deviation = 0.0236724 Body force = (-0.180623 , -7.62865 , -0) 
 At (1.225 , 0.425 , 0.05 )  Deviation = 0.0207882 Body force = (-0.139485 , -6.70886 , -0) 
 At (1.275 , 0.425 , 0.05 )  Deviation = 0.0183342 Body force = (-0.108621 , -5.9238 , -0) 
 At (1.325 , 0.425 , 0.05 )  Deviation = 0.0162532 Body force = (-0.0854386 , -5.25627 , -0) 
 At (1.375 , 0.425 , 0.05 )  Deviation = 0.0144943 Body force = (-0.0679938 , -4.69075 , -0) 
 At (1.425 , 0.425 , 0.05 )  Deviation = 0.0130139 Body force = (-0.0548425 , -4.21391 , -0) 
 At (1.475 , 0.425 , 0.05 )  Deviation = 0.0117705 Body force = (-0.044879 , -3.81265 , -0) 
 At (1.525 , 0.425 , 0.05 )  Deviation = 0.978887 Body force = (0 , 0 , 0) 
 At (1.575 , 0.425 , 0.05 )  Deviation = 1.07187 Body force = (0 , 0 , 0) 
 At (1.625 , 0.425 , 0.05 )  Deviation = 0.795836 Body force = (0 , 0 , 0) 
 At (1.675 , 0.425 , 0.05 )  Deviation = 0.885688 Body force = (0 , 0 , 0) 
 At (1.725 , 0.425 , 0.05 )  Deviation = 0.62323 Body force = (0 , 0 , 0) 
 At (1.775 , 0.425 , 0.05 )  Deviation = 0.705839 Body force = (0 , 0 , 0) 
 At (1.825 , 0.425 , 0.05 )  Deviation = 0.467572 Body force = (0 , 0 , 0) 
 At (1.875 , 0.425 , 0.05 )  Deviation = 0.540563 Body force = (0 , 0 , 0) 
 At (1.925 , 0.425 , 0.05 )  Deviation = 0.332046 Body force = (0 , 0 , 0) 
 At (1.975 , 0.425 , 0.05 )  Deviation = 0.39461 Body force = (0 , 0 , 0) 
 At (0.025 , 0.475 , 0.05 )  Deviation = 0.217008 Body force = (0 , 0 , 0) 
 At (0.075 , 0.475 , 0.05 )  Deviation = 0.269584 Body force = (0 , 0 , 0) 
 At (0.125 , 0.475 , 0.05 )  Deviation = 0.120772 Body force = (0 , 0 , 0) 
 At (0.175 , 0.475 , 0.05 )  Deviation = 0.164577 Body force = (0 , 0 , 0) 
 At (0.225 , 0.475 , 0.05 )  Deviation = 0.0406472 Body force = (0 , 0 , 0) 
 At (0.275 , 0.475 , 0.05 )  Deviation = 0.0771107 Body force = (0 , 0 , 0) 
 At (0.325 , 0.475 , 0.05 )  Deviation = -0.0258511 Body force = (0 , 0 , 0) 
 At (0.375 , 0.475 , 0.05 )  Deviation = 0.00428027 Body force = (0 , 0 , 0) 
 At (0.425 , 0.475 , 0.05 )  Deviation = -0.0819578 Body force = (0 , 0 , 0) 
 At (0.475 , 0.475 , 0.05 )  Deviation = -0.0559633 Body force = (0 , 0 , 0) 
 At (0.525 , 0.475 , 0.05 )  Deviation = 0.151086 Body force = (-7.14138 , -46.9068 , -0) 
 At (0.575 , 0.475 , 0.05 )  Deviation = 0.130732 Body force = (-5.364 , -40.7963 , -0) 
 At (0.625 , 0.475 , 0.05 )  Deviation = 0.113079 Body force = (-4.02596 , -35.4511 , -0) 
 At (0.675 , 0.475 , 0.05 )  Deviation = 0.0977657 Body force = (-3.01629 , -30.7538 , -0) 
 At (0.725 , 0.475 , 0.05 )  Deviation = 0.084497 Body force = (-2.25715 , -26.6492 , -0) 
 At (0.775 , 0.475 , 0.05 )  Deviation = 0.0730257 Body force = (-1.68888 , -23.0861 , -0) 
 At (0.825 , 0.475 , 0.05 )  Deviation = 0.063132 Body force = (-1.26479 , -20.0075 , -0) 
 At (0.875 , 0.475 , 0.05 )  Deviation = 0.0546164 Body force = (-0.948762 , -17.3541 , -0) 
 At (0.925 , 0.475 , 0.05 )  Deviation = 0.0472981 Body force = (-0.713292 , -15.0695 , -0) 
 At (0.975 , 0.475 , 0.05 )  Deviation = 0.0410153 Body force = (-0.537727 , -13.1031 , -0) 
 At (1.025 , 0.475 , 0.05 )  Deviation = 0.035626 Body force = (-0.406685 , -11.4105 , -0) 
 At (1.075 , 0.475 , 0.05 )  Deviation = 0.0310071 Body force = (-0.308756 , -9.95439 , -0) 
 At (1.125 , 0.475 , 0.05 )  Deviation = 0.0270526 Body force = (-0.235488 , -8.70271 , -0) 
 At (1.175 , 0.475 , 0.05 )  Deviation = 0.023672 Body force = (-0.180615 , -7.6285 , -0) 
 At (1.225 , 0.475 , 0.05 )  Deviation = 0.0207879 Body force = (-0.139481 , -6.70875 , -0) 
 At (1.275 , 0.475 , 0.05 )  Deviation = 0.0183341 Body force = (-0.108619 , -5.92375 , -0) 
 At (1.325 , 0.475 , 0.05 )  Deviation = 0.0162533 Body force = (-0.0854394 , -5.25629 , -0) 
 At (1.375 , 0.475 , 0.05 )  Deviation = 0.0144946 Body force = (-0.0679965 , -4.69084 , -0) 
 At (1.425 , 0.475 , 0.05 )  Deviation = 0.0130144 Body force = (-0.0548466 , -4.21407 , -0) 
 At (1.475 , 0.475 , 0.05 )  Deviation = 0.0117712 Body force = (-0.0448839 , -3.81285 , -0) 
 At (1.525 , 0.475 , 0.05 )  Deviation = -0.0557374 Body force = (0 , 0 , 0) 
 At (1.575 , 0.475 , 0.05 )  Deviation = 2.86034 Body force = (0 , 0 , 0) 
 At (1.625 , 0.475 , 0.05 )  Deviation = 2.86019 Body force = (0 , 0 , 0) 
 At (1.675 , 0.475 , 0.05 )  Deviation = 2.86005 Body force = (0 , 0 , 0) 
 At (1.725 , 0.475 , 0.05 )  Deviation = 2.86012 Body force = (0 , 0 , 0) 
 At (1.775 , 0.475 , 0.05 )  Deviation = 2.85882 Body force = (0 , 0 , 0) 
 At (1.825 , 0.475 , 0.05 )  Deviation = 2.85954 Body force = (0 , 0 , 0) 
 At (1.875 , 0.475 , 0.05 )  Deviation = 2.85567 Body force = (0 , 0 , 0) 
 At (1.925 , 0.475 , 0.05 )  Deviation = 2.85757 Body force = (0 , 0 , 0) 
 At (1.975 , 0.475 , 0.05 )  Deviation = 2.84969 Body force = (0 , 0 , 0) 
 At (0.025 , 0.525 , 0.05 )  Deviation = 2.85313 Body force = (0 , 0 , 0) 
 At (0.075 , 0.525 , 0.05 )  Deviation = 2.84049 Body force = (0 , 0 , 0) 
 At (0.125 , 0.525 , 0.05 )  Deviation = 2.84547 Body force = (0 , 0 , 0) 
 At (0.175 , 0.525 , 0.05 )  Deviation = 2.8285 Body force = (0 , 0 , 0) 
 At (0.225 , 0.525 , 0.05 )  Deviation = 2.83462 Body force = (0 , 0 , 0) 
 At (0.275 , 0.525 , 0.05 )  Deviation = 2.81418 Body force = (0 , 0 , 0) 
 At (0.325 , 0.525 , 0.05 )  Deviation = 2.82142 Body force = (0 , 0 , 0) 
 At (0.375 , 0.525 , 0.05 )  Deviation = 2.80325 Body force = (0 , 0 , 0) 
 At (0.425 , 0.525 , 0.05 )  Deviation = 2.80599 Body force = (0 , 0 , 0) 
 At (0.475 , 0.525 , 0.05 )  Deviation = 2.71802 Body force = (0 , 0 , 0) 
 At (0.525 , 0.525 , 0.05 )  Deviation = 0.151087 Body force = (-7.14149 , -46.9071 , -0) 
 At (0.575 , 0.525 , 0.05 )  Deviation = 0.130733 Body force = (-5.36402 , -40.7964 , -0) 
 At (0.625 , 0.525 , 0.05 )  Deviation = 0.113079 Body force = (-4.02595 , -35.451 , -0) 
 At (0.675 , 0.525 , 0.05 )  Deviation = 0.0977652 Body force = (-3.01625 , -30.7536 , -0) 
 At (0.725 , 0.525 , 0.05 )  Deviation = 0.0844963 Body force = (-2.25711 , -26.6489 , -0) 
 At (0.775 , 0.525 , 0.05 )  Deviation = 0.0730249 Body force = (-1.68884 , -23.0858 , -0) 
 At (0.825 , 0.525 , 0.05 )  Deviation = 0.0631312 Body force = (-1.26476 , -20.0072 , -0) 
 At (0.875 , 0.525 , 0.05 )  Deviation = 0.0546157 Body force = (-0.948736 , -17.3539 , -0) 
 At (0.925 , 0.525 , 0.05 )  Deviation = 0.0472974 Body force = (-0.713271 , -15.0693 , -0) 
 At (0.975 , 0.525 , 0.05 )  Deviation = 0.0410147 Body force = (-0.537711 , -13.1029 , -0) 
 At (1.025 , 0.525 , 0.05 )  Deviation = 0.0356254 Body force = (-0.406671 , -11.4104 , -0) 
 At (1.075 , 0.525 , 0.05 )  Deviation = 0.0310065 Body force = (-0.308744 , -9.95421 , -0) 
 At (1.125 , 0.525 , 0.05 )  Deviation = 0.027052 Body force = (-0.235479 , -8.70254 , -0) 
 At (1.175 , 0.525 , 0.05 )  Deviation = 0.0236715 Body force = (-0.180608 , -7.62834 , -0) 
 At (1.225 , 0.525 , 0.05 )  Deviation = 0.0207875 Body force = (-0.139476 , -6.70864 , -0) 
 At (1.275 , 0.525 , 0.05 )  Deviation = 0.0183339 Body force = (-0.108617 , -5.9237 , -0) 
 At (1.325 , 0.525 , 0.05 )  Deviation = 0.0162533 Body force = (-0.08544 , -5.2563 , -0) 
 At (1.375 , 0.525 , 0.05 )  Deviation = 0.0144949 Body force = (-0.0679994 , -4.69094 , -0) 
 At (1.425 , 0.525 , 0.05 )  Deviation = 0.0130149 Body force = (-0.054851 , -4.21424 , -0) 
 At (1.475 , 0.525 , 0.05 )  Deviation = 0.0117719 Body force = (-0.0448892 , -3.81308 , -0) 
 At (1.525 , 0.525 , 0.05 )  Deviation = 1.07161 Body force = (0 , 0 , 0) 
 At (1.575 , 0.525 , 0.05 )  Deviation = 0.795691 Body force = (0 , 0 , 0) 
 At (1.625 , 0.525 , 0.05 )  Deviation = 0.88548 Body force = (0 , 0 , 0) 
 At (1.675 , 0.525 , 0.05 )  Deviation = 0.623171 Body force = (0 , 0 , 0) 
 At (1.725 , 0.525 , 0.05 )  Deviation = 0.705702 Body force = (0 , 0 , 0) 
 At (1.775 , 0.525 , 0.05 )  Deviation = 0.467601 Body force = (0 , 0 , 0) 
 At (1.825 , 0.525 , 0.05 )  Deviation = 0.540511 Body force = (0 , 0 , 0) 
 At (1.875 , 0.525 , 0.05 )  Deviation = 0.332149 Body force = (0 , 0 , 0) 
 At (1.925 , 0.525 , 0.05 )  Deviation = 0.394644 Body force = (0 , 0 , 0) 
 At (1.975 , 0.525 , 0.05 )  Deviation = 0.217153 Body force = (0 , 0 , 0) 
 At (0.025 , 0.575 , 0.05 )  Deviation = 0.269685 Body force = (0 , 0 , 0) 
 At (0.075 , 0.575 , 0.05 )  Deviation = 0.120915 Body force = (0 , 0 , 0) 
 At (0.125 , 0.575 , 0.05 )  Deviation = 0.164708 Body force = (0 , 0 , 0) 
 At (0.175 , 0.575 , 0.05 )  Deviation = 0.0407438 Body force = (0 , 0 , 0) 
 At (0.225 , 0.575 , 0.05 )  Deviation = 0.0772257 Body force = (0 , 0 , 0) 
 At (0.275 , 0.575 , 0.05 )  Deviation = -0.025832 Body force = (0 , 0 , 0) 
 At (0.325 , 0.575 , 0.05 )  Deviation = 0.00433917 Body force = (0 , 0 , 0) 
 At (0.375 , 0.575 , 0.05 )  Deviation = -0.0820331 Body force = (0 , 0 , 0) 
 At (0.425 , 0.575 , 0.05 )  Deviation = -0.0559867 Body force = (0 , 0 , 0) 
 At (0.475 , 0.575 , 0.05 )  Deviation = -0.12899 Body force = (0 , 0 , 0) 
 At (0.525 , 0.575 , 0.05 )  Deviation = 0.151088 Body force = (-7.14159 , -46.9074 , -0) 
 At (0.575 , 0.575 , 0.05 )  Deviation = 0.130733 Body force = (-5.36404 , -40.7964 , -0) 
 At (0.625 , 0.575 , 0.05 )  Deviation = 0.113079 Body force = (-4.02592 , -35.4509 , -0) 
 At (0.675 , 0.575 , 0.05 )  Deviation = 0.0977647 Body force = (-3.01621 , -30.7534 , -0) 
 At (0.725 , 0.575 , 0.05 )  Deviation = 0.0844957 Body force = (-2.25707 , -26.6486 , -0) 
 At (0.775 , 0.575 , 0.05 )  Deviation = 0.0730242 Body force = (-1.68881 , -23.0856 , -0) 
 At (0.825 , 0.575 , 0.05 )  Deviation = 0.0631306 Body force = (-1.26473 , -20.007 , -0) 
 At (0.875 , 0.575 , 0.05 )  Deviation = 0.0546151 Body force = (-0.948715 , -17.3537 , -0) 
 At (0.925 , 0.575 , 0.05 )  Deviation = 0.0472969 Body force = (-0.713256 , -15.0692 , -0) 
 At (0.975 , 0.575 , 0.05 )  Deviation = 0.0410142 Body force = (-0.537698 , -13.1027 , -0) 
 At (1.025 , 0.575 , 0.05 )  Deviation = 0.0356249 Body force = (-0.40666 , -11.4102 , -0) 
 At (1.075 , 0.575 , 0.05 )  Deviation = 0.031006 Body force = (-0.308735 , -9.95406 , -0) 
 At (1.125 , 0.575 , 0.05 )  Deviation = 0.0270515 Body force = (-0.235471 , -8.70239 , -0) 
 At (1.175 , 0.575 , 0.05 )  Deviation = 0.023671 Body force = (-0.180601 , -7.62821 , -0) 
 At (1.225 , 0.575 , 0.05 )  Deviation = 0.0207872 Body force = (-0.139472 , -6.70854 , -0) 
 At (1.275 , 0.575 , 0.05 )  Deviation = 0.0183338 Body force = (-0.108615 , -5.92366 , -0) 
 At (1.325 , 0.575 , 0.05 )  Deviation = 0.0162534 Body force = (-0.085441 , -5.25634 , -0) 
 At (1.375 , 0.575 , 0.05 )  Deviation = 0.0144952 Body force = (-0.0680026 , -4.69105 , -0) 
 At (1.425 , 0.575 , 0.05 )  Deviation = 0.0130155 Body force = (-0.0548559 , -4.21443 , -0) 
 At (1.475 , 0.575 , 0.05 )  Deviation = 0.0117726 Body force = (-0.0448949 , -3.81332 , -0) 
 At (1.525 , 0.575 , 0.05 )  Deviation = 2.85997 Body force = (0 , 0 , 0) 
 At (1.575 , 0.575 , 0.05 )  Deviation = 2.85985 Body force = (0 , 0 , 0) 
 At (1.625 , 0.575 , 0.05 )  Deviation = 2.85961 Body force = (0 , 0 , 0) 
 At (1.675 , 0.575 , 0.05 )  Deviation = 2.85975 Body force = (0 , 0 , 0) 
 At (1.725 , 0.575 , 0.05 )  Deviation = 2.85829 Body force = (0 , 0 , 0) 
 At (1.775 , 0.575 , 0.05 )  Deviation = 2.8591 Body force = (0 , 0 , 0) 
 At (1.825 , 0.575 , 0.05 )  Deviation = 2.85502 Body force = (0 , 0 , 0) 
 At (1.875 , 0.575 , 0.05 )  Deviation = 2.85702 Body force = (0 , 0 , 0) 
 At (1.925 , 0.575 , 0.05 )  Deviation = 2.8489 Body force = (0 , 0 , 0) 
 At (1.975 , 0.575 , 0.05 )  Deviation = 2.85246 Body force = (0 , 0 , 0) 
 At (0.025 , 0.625 , 0.05 )  Deviation = 2.8396 Body force = (0 , 0 , 0) 
 At (0.075 , 0.625 , 0.05 )  Deviation = 2.84469 Body force = (0 , 0 , 0) 
 At (0.125 , 0.625 , 0.05 )  Deviation = 2.82754 Body force = (0 , 0 , 0) 
 At (0.175 , 0.625 , 0.05 )  Deviation = 2.83377 Body force = (0 , 0 , 0) 
 At (0.225 , 0.625 , 0.05 )  Deviation = 2.81323 Body force = (0 , 0 , 0) 
 At (0.275 , 0.625 , 0.05 )  Deviation = 2.82054 Body force = (0 , 0 , 0) 
 At (0.325 , 0.625 , 0.05 )  Deviation = 2.80237 Body force = (0 , 0 , 0) 
 At (0.375 , 0.625 , 0.05 )  Deviation = 2.80516 Body force = (0 , 0 , 0) 
 At (0.425 , 0.625 , 0.05 )  Deviation = 2.71725 Body force = (0 , 0 , 0) 
 At (0.475 , 0.625 , 0.05 )  Deviation = 2.79888 Body force = (0 , 0 , 0) 
 At (0.525 , 0.625 , 0.05 )  Deviation = 0.151089 Body force = (-7.14167 , -46.9076 , -0) 
 At (0.575 , 0.625 , 0.05 )  Deviation = 0.130733 Body force = (-5.36405 , -40.7964 , -0) 
 At (0.625 , 0.625 , 0.05 )  Deviation = 0.113079 Body force = (-4.02589 , -35.4507 , -0) 
 At (0.675 , 0.625 , 0.05 )  Deviation = 0.0977641 Body force = (-3.01617 , -30.7531 , -0) 
 At (0.725 , 0.625 , 0.05 )  Deviation = 0.084495 Body force = (-2.25703 , -26.6484 , -0) 
 At (0.775 , 0.625 , 0.05 )  Deviation = 0.0730236 Body force = (-1.68878 , -23.0854 , -0) 
 At (0.825 , 0.625 , 0.05 )  Deviation = 0.0631301 Body force = (-1.26471 , -20.0068 , -0) 
 At (0.875 , 0.625 , 0.05 )  Deviation = 0.0546147 Body force = (-0.948702 , -17.3535 , -0) 
 At (0.925 , 0.625 , 0.05 )  Deviation = 0.0472966 Body force = (-0.713247 , -15.0691 , -0) 
 At (0.975 , 0.625 , 0.05 )  Deviation = 0.0410139 Body force = (-0.537692 , -13.1026 , -0) 
 At (1.025 , 0.625 , 0.05 )  Deviation = 0.0356247 Body force = (-0.406655 , -11.4101 , -0) 
 At (1.075 , 0.625 , 0.05 )  Deviation = 0.0310057 Body force = (-0.308729 , -9.95398 , -0) 
 At (1.125 , 0.625 , 0.05 )  Deviation = 0.0270512 Body force = (-0.235466 , -8.7023 , -0) 
 At (1.175 , 0.625 , 0.05 )  Deviation = 0.0236708 Body force = (-0.180597 , -7.62813 , -0) 
 At (1.225 , 0.625 , 0.05 )  Deviation = 0.020787 Body force = (-0.139469 , -6.70848 , -0) 
 At (1.275 , 0.625 , 0.05 )  Deviation = 0.0183338 Body force = (-0.108615 , -5.92366 , -0) 
 At (1.325 , 0.625 , 0.05 )  Deviation = 0.0162537 Body force = (-0.0854434 , -5.25641 , -0) 
 At (1.375 , 0.625 , 0.05 )  Deviation = 0.0144957 Body force = (-0.0680071 , -4.69121 , -0) 
 At (1.425 , 0.625 , 0.05 )  Deviation = 0.0130162 Body force = (-0.0548617 , -4.21465 , -0) 
 At (1.475 , 0.625 , 0.05 )  Deviation = 0.0117735 Body force = (-0.0449012 , -3.81359 , -0) 
 At (1.525 , 0.625 , 0.05 )  Deviation = 0.795491 Body force = (0 , 0 , 0) 
 At (1.575 , 0.625 , 0.05 )  Deviation = 0.885242 Body force = (0 , 0 , 0) 
 At (1.625 , 0.625 , 0.05 )  Deviation = 0.623042 Body force = (0 , 0 , 0) 
 At (1.675 , 0.625 , 0.05 )  Deviation = 0.705518 Body force = (0 , 0 , 0) 
 At (1.725 , 0.625 , 0.05 )  Deviation = 0.467554 Body force = (0 , 0 , 0) 
 At (1.775 , 0.625 , 0.05 )  Deviation = 0.5404 Body force = (0 , 0 , 0) 
 At (1.825 , 0.625 , 0.05 )  Deviation = 0.33218 Body force = (0 , 0 , 0) 
 At (1.875 , 0.625 , 0.05 )  Deviation = 0.394614 Body force = (0 , 0 , 0) 
 At (1.925 , 0.625 , 0.05 )  Deviation = 0.21724 Body force = (0 , 0 , 0) 
 At (1.975 , 0.625 , 0.05 )  Deviation = 0.269726 Body force = (0 , 0 , 0) 
 At (0.025 , 0.675 , 0.05 )  Deviation = 0.121018 Body force = (0 , 0 , 0) 
 At (0.075 , 0.675 , 0.05 )  Deviation = 0.16479 Body force = (0 , 0 , 0) 
 At (0.125 , 0.675 , 0.05 )  Deviation = 0.0408211 Body force = (0 , 0 , 0) 
 At (0.175 , 0.675 , 0.05 )  Deviation = 0.0773102 Body force = (0 , 0 , 0) 
 At (0.225 , 0.675 , 0.05 )  Deviation = -0.0258155 Body force = (0 , 0 , 0) 
 At (0.275 , 0.675 , 0.05 )  Deviation = 0.0043867 Body force = (0 , 0 , 0) 
 At (0.325 , 0.675 , 0.05 )  Deviation = -0.0820988 Body force = (0 , 0 , 0) 
 At (0.375 , 0.675 , 0.05 )  Deviation = -0.0560051 Body force = (0 , 0 , 0) 
 At (0.425 , 0.675 , 0.05 )  Deviation = -0.129145 Body force = (0 , 0 , 0) 
 At (0.475 , 0.675 , 0.05 )  Deviation = -0.108244 Body force = (0 , 0 , 0) 
 At (0.525 , 0.675 , 0.05 )  Deviation = 0.15109 Body force = (-7.14169 , -46.9076 , -0) 
 At (0.575 , 0.675 , 0.05 )  Deviation = 0.130733 Body force = (-5.36402 , -40.7962 , -0) 
 At (0.625 , 0.675 , 0.05 )  Deviation = 0.113078 Body force = (-4.02585 , -35.4505 , -0) 
 At (0.675 , 0.675 , 0.05 )  Deviation = 0.0977634 Body force = (-3.01612 , -30.7529 , -0) 
 At (0.725 , 0.675 , 0.05 )  Deviation = 0.0844943 Body force = (-2.25699 , -26.6481 , -0) 
 At (0.775 , 0.675 , 0.05 )  Deviation = 0.073023 Body force = (-1.68875 , -23.0851 , -0) 
 At (0.825 , 0.675 , 0.05 )  Deviation = 0.0631296 Body force = (-1.26469 , -20.0067 , -0) 
 At (0.875 , 0.675 , 0.05 )  Deviation = 0.0546144 Body force = (-0.948693 , -17.3535 , -0) 
 At (0.925 , 0.675 , 0.05 )  Deviation = 0.0472964 Body force = (-0.713244 , -15.069 , -0) 
 At (0.975 , 0.675 , 0.05 )  Deviation = 0.0410139 Body force = (-0.537691 , -13.1026 , -0) 
 At (1.025 , 0.675 , 0.05 )  Deviation = 0.0356247 Body force = (-0.406655 , -11.4101 , -0) 
 At (1.075 , 0.675 , 0.05 )  Deviation = 0.0310057 Body force = (-0.308729 , -9.95398 , -0) 
 At (1.125 , 0.675 , 0.05 )  Deviation = 0.0270512 Body force = (-0.235465 , -8.7023 , -0) 
 At (1.175 , 0.675 , 0.05 )  Deviation = 0.0236708 Body force = (-0.180598 , -7.62813 , -0) 
 At (1.225 , 0.675 , 0.05 )  Deviation = 0.0207871 Body force = (-0.139471 , -6.70852 , -0) 
 At (1.275 , 0.675 , 0.05 )  Deviation = 0.0183341 Body force = (-0.108619 , -5.92375 , -0) 
 At (1.325 , 0.675 , 0.05 )  Deviation = 0.0162542 Body force = (-0.0854488 , -5.25658 , -0) 
 At (1.375 , 0.675 , 0.05 )  Deviation = 0.0144964 Body force = (-0.0680137 , -4.69144 , -0) 
 At (1.425 , 0.675 , 0.05 )  Deviation = 0.013017 Body force = (-0.0548688 , -4.21493 , -0) 
 At (1.475 , 0.675 , 0.05 )  Deviation = 0.0117744 Body force = (-0.0449082 , -3.81389 , -0) 
 At (1.525 , 0.675 , 0.05 )  Deviation = 2.85958 Body force = (0 , 0 , 0) 
 At (1.575 , 0.675 , 0.05 )  Deviation = 2.85924 Body force = (0 , 0 , 0) 
 At (1.625 , 0.675 , 0.05 )  Deviation = 2.85945 Body force = (0 , 0 , 0) 
 At (1.675 , 0.675 , 0.05 )  Deviation = 2.85784 Body force = (0 , 0 , 0) 
 At (1.725 , 0.675 , 0.05 )  Deviation = 2.85875 Body force = (0 , 0 , 0) 
 At (1.775 , 0.675 , 0.05 )  Deviation = 2.85447 Body force = (0 , 0 , 0) 
 At (1.825 , 0.675 , 0.05 )  Deviation = 2.85659 Body force = (0 , 0 , 0) 
 At (1.875 , 0.675 , 0.05 )  Deviation = 2.84825 Body force = (0 , 0 , 0) 
 At (1.925 , 0.675 , 0.05 )  Deviation = 2.85194 Body force = (0 , 0 , 0) 
 At (1.975 , 0.675 , 0.05 )  Deviation = 2.83886 Body force = (0 , 0 , 0) 
 At (0.025 , 0.725 , 0.05 )  Deviation = 2.84408 Body force = (0 , 0 , 0) 
 At (0.075 , 0.725 , 0.05 )  Deviation = 2.82677 Body force = (0 , 0 , 0) 
 At (0.125 , 0.725 , 0.05 )  Deviation = 2.83309 Body force = (0 , 0 , 0) 
 At (0.175 , 0.725 , 0.05 )  Deviation = 2.81247 Body force = (0 , 0 , 0) 
 At (0.225 , 0.725 , 0.05 )  Deviation = 2.81985 Body force = (0 , 0 , 0) 
 At (0.275 , 0.725 , 0.05 )  Deviation = 2.80167 Body force = (0 , 0 , 0) 
 At (0.325 , 0.725 , 0.05 )  Deviation = 2.8045 Body force = (0 , 0 , 0) 
 At (0.375 , 0.725 , 0.05 )  Deviation = 2.71665 Body force = (0 , 0 , 0) 
 At (0.425 , 0.725 , 0.05 )  Deviation = 2.79831 Body force = (0 , 0 , 0) 
 At (0.475 , 0.725 , 0.05 )  Deviation = 2.461 Body force = (0 , 0 , 0) 
 At (0.525 , 0.725 , 0.05 )  Deviation = 0.15109 Body force = (-7.14166 , -46.9074 , -0) 
 At (0.575 , 0.725 , 0.05 )  Deviation = 0.130733 Body force = (-5.36397 , -40.796 , -0) 
 At (0.625 , 0.725 , 0.05 )  Deviation = 0.113077 Body force = (-4.02579 , -35.4501 , -0) 
 At (0.675 , 0.725 , 0.05 )  Deviation = 0.0977625 Body force = (-3.01606 , -30.7525 , -0) 
 At (0.725 , 0.725 , 0.05 )  Deviation = 0.0844933 Body force = (-2.25693 , -26.6478 , -0) 
 At (0.775 , 0.725 , 0.05 )  Deviation = 0.073022 Body force = (-1.6887 , -23.0848 , -0) 
 At (0.825 , 0.725 , 0.05 )  Deviation = 0.0631287 Body force = (-1.26466 , -20.0064 , -0) 
 At (0.875 , 0.725 , 0.05 )  Deviation = 0.0546137 Body force = (-0.94867 , -17.3533 , -0) 
 At (0.925 , 0.725 , 0.05 )  Deviation = 0.047296 Body force = (-0.71323 , -15.0689 , -0) 
 At (0.975 , 0.725 , 0.05 )  Deviation = 0.0410136 Body force = (-0.537684 , -13.1026 , -0) 
 At (1.025 , 0.725 , 0.05 )  Deviation = 0.0356245 Body force = (-0.406652 , -11.4101 , -0) 
 At (1.075 , 0.725 , 0.05 )  Deviation = 0.0310057 Body force = (-0.308729 , -9.95399 , -0) 
 At (1.125 , 0.725 , 0.05 )  Deviation = 0.0270513 Body force = (-0.235467 , -8.70234 , -0) 
 At (1.175 , 0.725 , 0.05 )  Deviation = 0.023671 Body force = (-0.180601 , -7.62821 , -0) 
 At (1.225 , 0.725 , 0.05 )  Deviation = 0.0207875 Body force = (-0.139477 , -6.70866 , -0) 
 At (1.275 , 0.725 , 0.05 )  Deviation = 0.0183347 Body force = (-0.108626 , -5.92396 , -0) 
 At (1.325 , 0.725 , 0.05 )  Deviation = 0.016255 Body force = (-0.0854573 , -5.25684 , -0) 
 At (1.375 , 0.725 , 0.05 )  Deviation = 0.0144973 Body force = (-0.0680223 , -4.69174 , -0) 
 At (1.425 , 0.725 , 0.05 )  Deviation = 0.0130179 Body force = (-0.0548766 , -4.21523 , -0) 
 At (1.475 , 0.725 , 0.05 )  Deviation = 0.0117752 Body force = (-0.0449146 , -3.81416 , -0) 
 At (1.525 , 0.725 , 0.05 )  Deviation = 0.884998 Body force = (0 , 0 , 0) 
 At (1.575 , 0.725 , 0.05 )  Deviation = 0.622876 Body force = (0 , 0 , 0) 
 At (1.625 , 0.725 , 0.05 )  Deviation = 0.705311 Body force = (0 , 0 , 0) 
 At (1.675 , 0.725 , 0.05 )  Deviation = 0.46746 Body force = (0 , 0 , 0) 
 At (1.725 , 0.725 , 0.05 )  Deviation = 0.540253 Body force = (0 , 0 , 0) 
 At (1.775 , 0.725 , 0.05 )  Deviation = 0.332159 Body force = (0 , 0 , 0) 
 At (1.825 , 0.725 , 0.05 )  Deviation = 0.394537 Body force = (0 , 0 , 0) 
 At (1.875 , 0.725 , 0.05 )  Deviation = 0.217276 Body force = (0 , 0 , 0) 
 At (1.925 , 0.725 , 0.05 )  Deviation = 0.269716 Body force = (0 , 0 , 0) 
 At (1.975 , 0.725 , 0.05 )  Deviation = 0.121082 Body force = (0 , 0 , 0) 
 At (0.025 , 0.775 , 0.05 )  Deviation = 0.164828 Body force = (0 , 0 , 0) 
 At (0.075 , 0.775 , 0.05 )  Deviation = 0.0408759 Body force = (0 , 0 , 0) 
 At (0.125 , 0.775 , 0.05 )  Deviation = 0.0773624 Body force = (0 , 0 , 0) 
 At (0.175 , 0.775 , 0.05 )  Deviation = -0.0258029 Body force = (0 , 0 , 0) 
 At (0.225 , 0.775 , 0.05 )  Deviation = 0.00441932 Body force = (0 , 0 , 0) 
 At (0.275 , 0.775 , 0.05 )  Deviation = -0.0821507 Body force = (0 , 0 , 0) 
 At (0.325 , 0.775 , 0.05 )  Deviation = -0.0560195 Body force = (0 , 0 , 0) 
 At (0.375 , 0.775 , 0.05 )  Deviation = -0.129269 Body force = (0 , 0 , 0) 
 At (0.425 , 0.775 , 0.05 )  Deviation = -0.108321 Body force = (0 , 0 , 0) 
 At (0.475 , 0.775 , 0.05 )  Deviation = -0.171144 Body force = (0 , 0 , 0) 
 At (0.525 , 0.775 , 0.05 )  Deviation = 0.15109 Body force = (-7.14167 , -46.9074 , -0) 
 At (0.575 , 0.775 , 0.05 )  Deviation = 0.130733 Body force = (-5.36398 , -40.796 , -0) 
 At (0.625 , 0.775 , 0.05 )  Deviation = 0.113078 Body force = (-4.02578 , -35.4501 , -0) 
 At (0.675 , 0.775 , 0.05 )  Deviation = 0.0977623 Body force = (-3.01604 , -30.7524 , -0) 
 At (0.725 , 0.775 , 0.05 )  Deviation = 0.0844927 Body force = (-2.2569 , -26.6476 , -0) 
 At (0.775 , 0.775 , 0.05 )  Deviation = 0.0730209 Body force = (-1.68865 , -23.0845 , -0) 
 At (0.825 , 0.775 , 0.05 )  Deviation = 0.0631274 Body force = (-1.26461 , -20.006 , -0) 
 At (0.875 , 0.775 , 0.05 )  Deviation = 0.0546123 Body force = (-0.948621 , -17.3528 , -0) 
 At (0.925 , 0.775 , 0.05 )  Deviation = 0.0472946 Body force = (-0.713189 , -15.0685 , -0) 
 At (0.975 , 0.775 , 0.05 )  Deviation = 0.0410124 Body force = (-0.537655 , -13.1022 , -0) 
 At (1.025 , 0.775 , 0.05 )  Deviation = 0.0356237 Body force = (-0.406633 , -11.4099 , -0) 
 At (1.075 , 0.775 , 0.05 )  Deviation = 0.0310052 Body force = (-0.308719 , -9.95383 , -0) 
 At (1.125 , 0.775 , 0.05 )  Deviation = 0.0270511 Body force = (-0.235464 , -8.70228 , -0) 
 At (1.175 , 0.775 , 0.05 )  Deviation = 0.0236711 Body force = (-0.180603 , -7.62827 , -0) 
 At (1.225 , 0.775 , 0.05 )  Deviation = 0.020788 Body force = (-0.139483 , -6.70882 , -0) 
 At (1.275 , 0.775 , 0.05 )  Deviation = 0.0183354 Body force = (-0.108635 , -5.92421 , -0) 
 At (1.325 , 0.775 , 0.05 )  Deviation = 0.0162559 Body force = (-0.085467 , -5.25714 , -0) 
 At (1.375 , 0.775 , 0.05 )  Deviation = 0.0144982 Body force = (-0.0680307 , -4.69203 , -0) 
 At (1.425 , 0.775 , 0.05 )  Deviation = 0.0130186 Body force = (-0.0548825 , -4.21546 , -0) 
 At (1.475 , 0.775 , 0.05 )  Deviation = 0.0117756 Body force = (-0.0449179 , -3.81431 , -0) 
 At (1.525 , 0.775 , 0.05 )  Deviation = 2.85896 Body force = (0 , 0 , 0) 
 At (1.575 , 0.775 , 0.05 )  Deviation = 2.85923 Body force = (0 , 0 , 0) 
 At (1.625 , 0.775 , 0.05 )  Deviation = 2.8575 Body force = (0 , 0 , 0) 
 At (1.675 , 0.775 , 0.05 )  Deviation = 2.8585 Body force = (0 , 0 , 0) 
 At (1.725 , 0.775 , 0.05 )  Deviation = 2.85406 Body force = (0 , 0 , 0) 
 At (1.775 , 0.775 , 0.05 )  Deviation = 2.85628 Body force = (0 , 0 , 0) 
 At (1.825 , 0.775 , 0.05 )  Deviation = 2.84776 Body force = (0 , 0 , 0) 
 At (1.875 , 0.775 , 0.05 )  Deviation = 2.85156 Body force = (0 , 0 , 0) 
 At (1.925 , 0.775 , 0.05 )  Deviation = 2.83831 Body force = (0 , 0 , 0) 
 At (1.975 , 0.775 , 0.05 )  Deviation = 2.84364 Body force = (0 , 0 , 0) 
 At (0.025 , 0.825 , 0.05 )  Deviation = 2.82618 Body force = (0 , 0 , 0) 
 At (0.075 , 0.825 , 0.05 )  Deviation = 2.83261 Body force = (0 , 0 , 0) 
 At (0.125 , 0.825 , 0.05 )  Deviation = 2.81189 Body force = (0 , 0 , 0) 
 At (0.175 , 0.825 , 0.05 )  Deviation = 2.81937 Body force = (0 , 0 , 0) 
 At (0.225 , 0.825 , 0.05 )  Deviation = 2.80115 Body force = (0 , 0 , 0) 
 At (0.275 , 0.825 , 0.05 )  Deviation = 2.80406 Body force = (0 , 0 , 0) 
 At (0.325 , 0.825 , 0.05 )  Deviation = 2.71623 Body force = (0 , 0 , 0) 
 At (0.375 , 0.825 , 0.05 )  Deviation = 2.79794 Body force = (0 , 0 , 0) 
 At (0.425 , 0.825 , 0.05 )  Deviation = 2.46068 Body force = (0 , 0 , 0) 
 At (0.475 , 0.825 , 0.05 )  Deviation = 2.6343 Body force = (0 , 0 , 0) 
 At (0.525 , 0.825 , 0.05 )  Deviation = 0.151093 Body force = (-7.14189 , -46.908 , -0) 
 At (0.575 , 0.825 , 0.05 )  Deviation = 0.130736 Body force = (-5.36419 , -40.7967 , -0) 
 At (0.625 , 0.825 , 0.05 )  Deviation = 0.11308 Body force = (-4.02596 , -35.4508 , -0) 
 At (0.675 , 0.825 , 0.05 )  Deviation = 0.0977646 Body force = (-3.01617 , -30.753 , -0) 
 At (0.725 , 0.825 , 0.05 )  Deviation = 0.0844941 Body force = (-2.25697 , -26.6479 , -0) 
 At (0.775 , 0.825 , 0.05 )  Deviation = 0.0730214 Body force = (-1.68867 , -23.0846 , -0) 
 At (0.825 , 0.825 , 0.05 )  Deviation = 0.063127 Body force = (-1.26459 , -20.0058 , -0) 
 At (0.875 , 0.825 , 0.05 )  Deviation = 0.0546112 Body force = (-0.948584 , -17.3525 , -0) 
 At (0.925 , 0.825 , 0.05 )  Deviation = 0.0472931 Body force = (-0.713147 , -15.0681 , -0) 
 At (0.975 , 0.825 , 0.05 )  Deviation = 0.0410109 Body force = (-0.537616 , -13.1017 , -0) 
 At (1.025 , 0.825 , 0.05 )  Deviation = 0.0356223 Body force = (-0.406602 , -11.4094 , -0) 
 At (1.075 , 0.825 , 0.05 )  Deviation = 0.0310041 Body force = (-0.308698 , -9.9535 , -0) 
 At (1.125 , 0.825 , 0.05 )  Deviation = 0.0270504 Body force = (-0.235452 , -8.70208 , -0) 
 At (1.175 , 0.825 , 0.05 )  Deviation = 0.0236709 Body force = (-0.1806 , -7.62819 , -0) 
 At (1.225 , 0.825 , 0.05 )  Deviation = 0.0207882 Body force = (-0.139486 , -6.70889 , -0) 
 At (1.275 , 0.825 , 0.05 )  Deviation = 0.0183359 Body force = (-0.108641 , -5.92438 , -0) 
 At (1.325 , 0.825 , 0.05 )  Deviation = 0.0162565 Body force = (-0.0854734 , -5.25735 , -0) 
 At (1.375 , 0.825 , 0.05 )  Deviation = 0.0144987 Body force = (-0.0680352 , -4.69219 , -0) 
 At (1.425 , 0.825 , 0.05 )  Deviation = 0.0130188 Body force = (-0.0548838 , -4.21551 , -0) 
 At (1.475 , 0.825 , 0.05 )  Deviation = 0.0117754 Body force = (-0.044916 , -3.81423 , -0) 
 At (1.525 , 0.825 , 0.05 )  Deviation = 0.622688 Body force = (0 , 0 , 0) 
 At (1.575 , 0.825 , 0.05 )  Deviation = 0.705096 Body force = (0 , 0 , 0) 
 At (1.625 , 0.825 , 0.05 )  Deviation = 0.467331 Body force = (0 , 0 , 0) 
 At (1.675 , 0.825 , 0.05 )  Deviation = 0.540083 Body force = (0 , 0 , 0) 
 At (1.725 , 0.825 , 0.05 )  Deviation = 0.332095 Body force = (0 , 0 , 0) 
 At (1.775 , 0.825 , 0.05 )  Deviation = 0.394426 Body force = (0 , 0 , 0) 
 At (1.825 , 0.825 , 0.05 )  Deviation = 0.217268 Body force = (0 , 0 , 0) 
 At (1.875 , 0.825 , 0.05 )  Deviation = 0.269665 Body force = (0 , 0 , 0) 
 At (1.925 , 0.825 , 0.05 )  Deviation = 0.121108 Body force = (0 , 0 , 0) 
 At (1.975 , 0.825 , 0.05 )  Deviation = 0.164823 Body force = (0 , 0 , 0) 
 At (0.025 , 0.875 , 0.05 )  Deviation = 0.0409058 Body force = (0 , 0 , 0) 
 At (0.075 , 0.875 , 0.05 )  Deviation = 0.0773813 Body force = (0 , 0 , 0) 
 At (0.125 , 0.875 , 0.05 )  Deviation = -0.0257973 Body force = (0 , 0 , 0) 
 At (0.175 , 0.875 , 0.05 )  Deviation = 0.00443372 Body force = (0 , 0 , 0) 
 At (0.225 , 0.875 , 0.05 )  Deviation = -0.0821901 Body force = (0 , 0 , 0) 
 At (0.275 , 0.875 , 0.05 )  Deviation = -0.0560331 Body force = (0 , 0 , 0) 
 At (0.325 , 0.875 , 0.05 )  Deviation = -0.129362 Body force = (0 , 0 , 0) 
 At (0.375 , 0.875 , 0.05 )  Deviation = -0.108377 Body force = (0 , 0 , 0) 
 At (0.425 , 0.875 , 0.05 )  Deviation = -0.171286 Body force = (0 , 0 , 0) 
 At (0.475 , 0.875 , 0.05 )  Deviation = -0.15041 Body force = (0 , 0 , 0) 
 At (0.525 , 0.875 , 0.05 )  Deviation = 0.151095 Body force = (-7.14207 , -46.9086 , -0) 
 At (0.575 , 0.875 , 0.05 )  Deviation = 0.130738 Body force = (-5.3644 , -40.7975 , -0) 
 At (0.625 , 0.875 , 0.05 )  Deviation = 0.113083 Body force = (-4.02618 , -35.4517 , -0) 
 At (0.675 , 0.875 , 0.05 )  Deviation = 0.0977681 Body force = (-3.01638 , -30.754 , -0) 
 At (0.725 , 0.875 , 0.05 )  Deviation = 0.0844979 Body force = (-2.25716 , -26.649 , -0) 
 At (0.775 , 0.875 , 0.05 )  Deviation = 0.0730251 Body force = (-1.68884 , -23.0857 , -0) 
 At (0.825 , 0.875 , 0.05 )  Deviation = 0.0631302 Body force = (-1.26472 , -20.0068 , -0) 
 At (0.875 , 0.875 , 0.05 )  Deviation = 0.0546137 Body force = (-0.948667 , -17.3532 , -0) 
 At (0.925 , 0.875 , 0.05 )  Deviation = 0.0472947 Body force = (-0.713195 , -15.0686 , -0) 
 At (0.975 , 0.875 , 0.05 )  Deviation = 0.0410116 Body force = (-0.537634 , -13.102 , -0) 
 At (1.025 , 0.875 , 0.05 )  Deviation = 0.0356223 Body force = (-0.406603 , -11.4095 , -0) 
 At (1.075 , 0.875 , 0.05 )  Deviation = 0.0310036 Body force = (-0.308689 , -9.95337 , -0) 
 At (1.125 , 0.875 , 0.05 )  Deviation = 0.0270498 Body force = (-0.235441 , -8.70189 , -0) 
 At (1.175 , 0.875 , 0.05 )  Deviation = 0.0236703 Body force = (-0.180592 , -7.62804 , -0) 
 At (1.225 , 0.875 , 0.05 )  Deviation = 0.0207878 Body force = (-0.139481 , -6.70879 , -0) 
 At (1.275 , 0.875 , 0.05 )  Deviation = 0.0183358 Body force = (-0.10864 , -5.92435 , -0) 
 At (1.325 , 0.875 , 0.05 )  Deviation = 0.0162565 Body force = (-0.0854735 , -5.25736 , -0) 
 At (1.375 , 0.875 , 0.05 )  Deviation = 0.0144986 Body force = (-0.0680348 , -4.69218 , -0) 
 At (1.425 , 0.875 , 0.05 )  Deviation = 0.0130186 Body force = (-0.0548823 , -4.21545 , -0) 
 At (1.475 , 0.875 , 0.05 )  Deviation = 0.0117751 Body force = (-0.0449136 , -3.81413 , -0) 
 At (1.525 , 0.875 , 0.05 )  Deviation = 2.85911 Body force = (0 , 0 , 0) 
 At (1.575 , 0.875 , 0.05 )  Deviation = 2.85728 Body force = (0 , 0 , 0) 
 At (1.625 , 0.875 , 0.05 )  Deviation = 2.85835 Body force = (0 , 0 , 0) 
 At (1.675 , 0.875 , 0.05 )  Deviation = 2.85379 Body force = (0 , 0 , 0) 
 At (1.725 , 0.875 , 0.05 )  Deviation = 2.85611 Body force = (0 , 0 , 0) 
 At (1.775 , 0.875 , 0.05 )  Deviation = 2.84744 Body force = (0 , 0 , 0) 
 At (1.825 , 0.875 , 0.05 )  Deviation = 2.85135 Body force = (0 , 0 , 0) 
 At (1.875 , 0.875 , 0.05 )  Deviation = 2.83795 Body force = (0 , 0 , 0) 
 At (1.925 , 0.875 , 0.05 )  Deviation = 2.84339 Body force = (0 , 0 , 0) 
 At (1.975 , 0.875 , 0.05 )  Deviation = 2.8258 Body force = (0 , 0 , 0) 
 At (0.025 , 0.925 , 0.05 )  Deviation = 2.83235 Body force = (0 , 0 , 0) 
 At (0.075 , 0.925 , 0.05 )  Deviation = 2.81154 Body force = (0 , 0 , 0) 
 At (0.125 , 0.925 , 0.05 )  Deviation = 2.81912 Body force = (0 , 0 , 0) 
 At (0.175 , 0.925 , 0.05 )  Deviation = 2.80085 Body force = (0 , 0 , 0) 
 At (0.225 , 0.925 , 0.05 )  Deviation = 2.80385 Body force = (0 , 0 , 0) 
 At (0.275 , 0.925 , 0.05 )  Deviation = 2.71601 Body force = (0 , 0 , 0) 
 At (0.325 , 0.925 , 0.05 )  Deviation = 2.7978 Body force = (0 , 0 , 0) 
 At (0.375 , 0.925 , 0.05 )  Deviation = 2.46056 Body force = (0 , 0 , 0) 
 At (0.425 , 0.925 , 0.05 )  Deviation = 2.63424 Body force = (0 , 0 , 0) 
 At (0.475 , 0.925 , 0.05 )  Deviation = 2.13966 Body force = (0 , 0 , 0) 
 At (0.525 , 0.925 , 0.05 )  Deviation = 0.151091 Body force = (-7.14177 , -46.9077 , -0) 
 At (0.575 , 0.925 , 0.05 )  Deviation = 0.130735 Body force = (-5.36415 , -40.7966 , -0) 
 At (0.625 , 0.925 , 0.05 )  Deviation = 0.113081 Body force = (-4.02603 , -35.4511 , -0) 
 At (0.675 , 0.925 , 0.05 )  Deviation = 0.0977684 Body force = (-3.0164 , -30.7541 , -0) 
 At (0.725 , 0.925 , 0.05 )  Deviation = 0.0845014 Body force = (-2.25735 , -26.6501 , -0) 
 At (0.775 , 0.925 , 0.05 )  Deviation = 0.0730317 Body force = (-1.68914 , -23.0877 , -0) 
 At (0.825 , 0.925 , 0.05 )  Deviation = 0.0631387 Body force = (-1.26505 , -20.0094 , -0) 
 At (0.875 , 0.925 , 0.05 )  Deviation = 0.0546225 Body force = (-0.94897 , -17.356 , -0) 
 At (0.925 , 0.925 , 0.05 )  Deviation = 0.0473024 Body force = (-0.713424 , -15.0709 , -0) 
 At (0.975 , 0.925 , 0.05 )  Deviation = 0.0410174 Body force = (-0.537786 , -13.1038 , -0) 
 At (1.025 , 0.925 , 0.05 )  Deviation = 0.0356259 Body force = (-0.406686 , -11.4106 , -0) 
 At (1.075 , 0.925 , 0.05 )  Deviation = 0.0310053 Body force = (-0.308724 , -9.95393 , -0) 
 At (1.125 , 0.925 , 0.05 )  Deviation = 0.0270501 Body force = (-0.235448 , -8.70202 , -0) 
 At (1.175 , 0.925 , 0.05 )  Deviation = 0.0236699 Body force = (-0.180585 , -7.62792 , -0) 
 At (1.225 , 0.925 , 0.05 )  Deviation = 0.0207871 Body force = (-0.139472 , -6.70859 , -0) 
 At (1.275 , 0.925 , 0.05 )  Deviation = 0.0183351 Body force = (-0.108632 , -5.92414 , -0) 
 At (1.325 , 0.925 , 0.05 )  Deviation = 0.0162558 Body force = (-0.0854666 , -5.25715 , -0) 
 At (1.375 , 0.925 , 0.05 )  Deviation = 0.0144981 Body force = (-0.0680305 , -4.69203 , -0) 
 At (1.425 , 0.925 , 0.05 )  Deviation = 0.0130187 Body force = (-0.0548831 , -4.21548 , -0) 
 At (1.475 , 0.925 , 0.05 )  Deviation = 0.011776 Body force = (-0.0449209 , -3.81443 , -0) 
 At (1.525 , 0.925 , 0.05 )  Deviation = 0.704882 Body force = (0 , 0 , 0) 
 At (1.575 , 0.925 , 0.05 )  Deviation = 0.467178 Body force = (0 , 0 , 0) 
 At (1.625 , 0.925 , 0.05 )  Deviation = 0.5399 Body force = (0 , 0 , 0) 
 At (1.675 , 0.925 , 0.05 )  Deviation = 0.331997 Body force = (0 , 0 , 0) 
 At (1.725 , 0.925 , 0.05 )  Deviation = 0.39429 Body force = (0 , 0 , 0) 
 At (1.775 , 0.925 , 0.05 )  Deviation = 0.217221 Body force = (0 , 0 , 0) 
 At (1.825 , 0.925 , 0.05 )  Deviation = 0.26958 Body force = (0 , 0 , 0) 
 At (1.875 , 0.925 , 0.05 )  Deviation = 0.121097 Body force = (0 , 0 , 0) 
 At (1.925 , 0.925 , 0.05 )  Deviation = 0.164782 Body force = (0 , 0 , 0) 
 At (1.975 , 0.925 , 0.05 )  Deviation = 0.0409092 Body force = (0 , 0 , 0) 
 At (0.025 , 0.975 , 0.05 )  Deviation = 0.0773678 Body force = (0 , 0 , 0) 
 At (0.075 , 0.975 , 0.05 )  Deviation = -0.0258021 Body force = (0 , 0 , 0) 
 At (0.125 , 0.975 , 0.05 )  Deviation = 0.00442788 Body force = (0 , 0 , 0) 
 At (0.175 , 0.975 , 0.05 )  Deviation = -0.0822198 Body force = (0 , 0 , 0) 
 At (0.225 , 0.975 , 0.05 )  Deviation = -0.0560486 Body force = (0 , 0 , 0) 
 At (0.275 , 0.975 , 0.05 )  Deviation = -0.129424 Body force = (0 , 0 , 0) 
 At (0.325 , 0.975 , 0.05 )  Deviation = -0.108412 Body force = (0 , 0 , 0) 
 At (0.375 , 0.975 , 0.05 )  Deviation = -0.171376 Body force = (0 , 0 , 0) 
 At (0.425 , 0.975 , 0.05 )  Deviation = -0.150466 Body force = (0 , 0 , 0) 
 At (0.475 , 0.975 , 0.05 )  Deviation = -0.221253 Body force = (0 , 0 , 0) 
 At (0.525 , 0.975 , 0.05 )  Deviation = 0.151084 Body force = (-7.14111 , -46.9056 , -0) 
 At (0.575 , 0.975 , 0.05 )  Deviation = 0.130727 Body force = (-5.36349 , -40.7942 , -0) 
 At (0.625 , 0.975 , 0.05 )  Deviation = 0.113074 Body force = (-4.02553 , -35.4491 , -0) 
 At (0.675 , 0.975 , 0.05 )  Deviation = 0.0977641 Body force = (-3.01617 , -30.7531 , -0) 
 At (0.725 , 0.975 , 0.05 )  Deviation = 0.084502 Body force = (-2.25741 , -26.6506 , -0) 
 At (0.775 , 0.975 , 0.05 )  Deviation = 0.0730371 Body force = (-1.6894 , -23.0896 , -0) 
 At (0.825 , 0.975 , 0.05 )  Deviation = 0.0631471 Body force = (-1.26539 , -20.0122 , -0) 
 At (0.875 , 0.975 , 0.05 )  Deviation = 0.0546319 Body force = (-0.949297 , -17.3589 , -0) 
 At (0.925 , 0.975 , 0.05 )  Deviation = 0.047311 Body force = (-0.71368 , -15.0736 , -0) 
 At (0.975 , 0.975 , 0.05 )  Deviation = 0.041024 Body force = (-0.537955 , -13.1058 , -0) 
 At (1.025 , 0.975 , 0.05 )  Deviation = 0.0356301 Body force = (-0.406778 , -11.4119 , -0) 
 At (1.075 , 0.975 , 0.05 )  Deviation = 0.0310073 Body force = (-0.308762 , -9.95453 , -0) 
 At (1.125 , 0.975 , 0.05 )  Deviation = 0.0270505 Body force = (-0.235455 , -8.70214 , -0) 
 At (1.175 , 0.975 , 0.05 )  Deviation = 0.0236693 Body force = (-0.180577 , -7.62775 , -0) 
 At (1.225 , 0.975 , 0.05 )  Deviation = 0.020786 Body force = (-0.139458 , -6.70826 , -0) 
 At (1.275 , 0.975 , 0.05 )  Deviation = 0.0183336 Body force = (-0.108615 , -5.92369 , -0) 
 At (1.325 , 0.975 , 0.05 )  Deviation = 0.016254 Body force = (-0.0854487 , -5.25661 , -0) 
 At (1.375 , 0.975 , 0.05 )  Deviation = 0.0144967 Body force = (-0.0680174 , -4.69159 , -0) 
 At (1.425 , 0.975 , 0.05 )  Deviation = 0.0130184 Body force = (-0.0548807 , -4.2154 , -0) 
 At (1.475 , 0.975 , 0.05 )  Deviation = 0.0117772 Body force = (-0.0449298 , -3.81482 , -0) 
 At (1.525 , 0.975 , 0.05 )  Deviation = 2.85718 Body force = (0 , 0 , 0) 
 At (1.575 , 0.975 , 0.05 )  Deviation = 2.85833 Body force = (0 , 0 , 0) 
 At (1.625 , 0.975 , 0.05 )  Deviation = 2.85367 Body force = (0 , 0 , 0) 
 At (1.675 , 0.975 , 0.05 )  Deviation = 2.85607 Body force = (0 , 0 , 0) 
 At (1.725 , 0.975 , 0.05 )  Deviation = 2.8473 Body force = (0 , 0 , 0) 
 At (1.775 , 0.975 , 0.05 )  Deviation = 2.8513 Body force = (0 , 0 , 0) 
 At (1.825 , 0.975 , 0.05 )  Deviation = 2.83779 Body force = (0 , 0 , 0) 
 At (1.875 , 0.975 , 0.05 )  Deviation = 2.84334 Body force = (0 , 0 , 0) 
 At (1.925 , 0.975 , 0.05 )  Deviation = 2.82566 Body force = (0 , 0 , 0) 
 At (1.975 , 0.975 , 0.05 )  Deviation = 2.83231 Body force = (0 , 0 , 0) 
**codeSetValue**
smoothSolver:  Solving for Ux, Initial residual = 0.324505, Final residual = 0.0139882, No Iterations 2
smoothSolver:  Solving for Uy, Initial residual = 0.0183727, Final residual = 0.00057326, No Iterations 2
**codeCorrect**
GAMG:  Solving for p, Initial residual = 0.181521, Final residual = 0.0158373, No Iterations 2
time step continuity errors : sum local = 0.00358372, global = -0.000133081, cumulative = 0.00034191
**codeCorrect**
ExecutionTime = 2.37 s  ClockTime = 3 s

Time = 11

**codeSetValue**
smoothSolver:  Solving for Ux, Initial residual = 0.416869, Final residual = 0.0171147, No Iterations 2
smoothSolver:  Solving for Uy, Initial residual = 0.0130941, Final residual = 0.000417003, No Iterations 2
**codeCorrect**
GAMG:  Solving for p, Initial residual = 0.196282, Final residual = 0.0131662, No Iterations 2
time step continuity errors : sum local = 0.00245622, global = -0.00028972, cumulative = 5.21906e-05
**codeCorrect**
ExecutionTime = 2.37 s  ClockTime = 3 s

Time = 12

**codeSetValue**
smoothSolver:  Solving for Ux, Initial residual = 0.515695, Final residual = 0.0261213, No Iterations 2
smoothSolver:  Solving for Uy, Initial residual = 0.00895128, Final residual = 0.000282586, No Iterations 2
**codeCorrect**
GAMG:  Solving for p, Initial residual = 0.119, Final residual = 0.0109186, No Iterations 2
time step continuity errors : sum local = 0.00257865, global = -0.000538308, cumulative = -0.000486118
**codeCorrect**
ExecutionTime = 2.38 s  ClockTime = 3 s

Time = 13

**codeSetValue**
smoothSolver:  Solving for Ux, Initial residual = 0.296063, Final residual = 0.0138402, No Iterations 2
smoothSolver:  Solving for Uy, Initial residual = 0.00595899, Final residual = 0.00018039, No Iterations 2
**codeCorrect**
GAMG:  Solving for p, Initial residual = 0.274083, Final residual = 0.0256848, No Iterations 2
time step continuity errors : sum local = 0.00243503, global = -5.51247e-05, cumulative = -0.000541242
**codeCorrect**
ExecutionTime = 2.38 s  ClockTime = 3 s

Time = 14

**codeSetValue**
smoothSolver:  Solving for Ux, Initial residual = 0.37736, Final residual = 0.0149213, No Iterations 2
smoothSolver:  Solving for Uy, Initial residual = 0.00409989, Final residual = 0.000122773, No Iterations 2
**codeCorrect**
GAMG:  Solving for p, Initial residual = 0.120919, Final residual = 0.00857016, No Iterations 2
time step continuity errors : sum local = 0.00183359, global = 0.00023782, cumulative = -0.000303423
**codeCorrect**
ExecutionTime = 2.38 s  ClockTime = 3 s

Time = 15

**codeSetValue**
smoothSolver:  Solving for Ux, Initial residual = 0.454174, Final residual = 0.0222899, No Iterations 2
smoothSolver:  Solving for Uy, Initial residual = 0.00266303, Final residual = 7.80739e-05, No Iterations 2
**codeCorrect**
GAMG:  Solving for p, Initial residual = 0.0825755, Final residual = 0.00625669, No Iterations 2
time step continuity errors : sum local = 0.00166339, global = 0.000461551, cumulative = 0.000158128
**codeCorrect**
ExecutionTime = 2.38 s  ClockTime = 3 s

Time = 16

**codeSetValue**
smoothSolver:  Solving for Ux, Initial residual = 0.281949, Final residual = 0.0145887, No Iterations 2
smoothSolver:  Solving for Uy, Initial residual = 0.00173682, Final residual = 5.06971e-05, No Iterations 2
**codeCorrect**
GAMG:  Solving for p, Initial residual = 0.0917326, Final residual = 0.0088283, No Iterations 2
time step continuity errors : sum local = 0.00172118, global = 0.000216106, cumulative = 0.000374234
**codeCorrect**
ExecutionTime = 2.4 s  ClockTime = 3 s

Time = 17

**codeSetValue**
smoothSolver:  Solving for Ux, Initial residual = 0.330076, Final residual = 0.0124658, No Iterations 2
smoothSolver:  Solving for Uy, Initial residual = 0.00119342, Final residual = 3.6632e-05, No Iterations 2
**codeCorrect**
GAMG:  Solving for p, Initial residual = 0.208163, Final residual = 0.0182979, No Iterations 2
time step continuity errors : sum local = 0.00157406, global = -7.33589e-05, cumulative = 0.000300875
**codeCorrect**
ExecutionTime = 2.4 s  ClockTime = 3 s

Time = 18

**codeSetValue**
smoothSolver:  Solving for Ux, Initial residual = 0.387191, Final residual = 0.0183674, No Iterations 2
smoothSolver:  Solving for Uy, Initial residual = 0.000761322, Final residual = 2.35505e-05, No Iterations 2
**codeCorrect**
GAMG:  Solving for p, Initial residual = 0.178259, Final residual = 0.00907504, No Iterations 2
time step continuity errors : sum local = 0.000803043, global = -0.00020911, cumulative = 9.17645e-05
**codeCorrect**
ExecutionTime = 2.4 s  ClockTime = 3 s

Time = 19

**codeSetValue**
smoothSolver:  Solving for Ux, Initial residual = 0.280337, Final residual = 0.0151422, No Iterations 2
smoothSolver:  Solving for Uy, Initial residual = 0.000457277, Final residual = 1.23585e-05, No Iterations 2
**codeCorrect**
GAMG:  Solving for p, Initial residual = 0.223172, Final residual = 0.0219207, No Iterations 2
time step continuity errors : sum local = 0.00131949, global = -0.00013204, cumulative = -4.02759e-05
**codeCorrect**
ExecutionTime = 2.41 s  ClockTime = 3 s

Time = 20

 At (0.025 , 0.025 , 0.05 )  Deviation = 6.95113e-310 Body force = (0 , 0 , 0) 
 At (0.075 , 0.025 , 0.05 )  Deviation = 6.95113e-310 Body force = (0 , 0 , 0) 
 At (0.125 , 0.025 , 0.05 )  Deviation = 2.00208e-316 Body force = (0 , 0 , 0) 
 At (0.175 , 0.025 , 0.05 )  Deviation = 2.00208e-316 Body force = (0 , 0 , 0) 
 At (0.225 , 0.025 , 0.05 )  Deviation = 7.01334e-06 Body force = (0 , 0 , 0) 
 At (0.275 , 0.025 , 0.05 )  Deviation = -2.07557e-08 Body force = (0 , 0 , 0) 
 At (0.325 , 0.025 , 0.05 )  Deviation = -4.65864e-05 Body force = (0 , 0 , 0) 
 At (0.375 , 0.025 , 0.05 )  Deviation = -1.67751e-08 Body force = (0 , 0 , 0) 
 At (0.425 , 0.025 , 0.05 )  Deviation = -0.000106177 Body force = (0 , 0 , 0) 
 At (0.475 , 0.025 , 0.05 )  Deviation = -1.29194e-08 Body force = (0 , 0 , 0) 
 At (0.525 , 0.025 , 0.05 )  Deviation = 0.151072 Body force = (-7.13893 , -46.895 , -0) 
 At (0.575 , 0.025 , 0.05 )  Deviation = 0.130708 Body force = (-5.36017 , -40.7749 , -0) 
 At (0.625 , 0.025 , 0.05 )  Deviation = 0.113052 Body force = (-4.02234 , -35.428 , -0) 
[...]
 At (1.075 , 0.775 , 0.05 )  Deviation = 0.0304469 Body force = (-0.297317 , -9.76206 , -0) 
 At (1.125 , 0.775 , 0.05 )  Deviation = 0.0263126 Body force = (-0.222334 , -8.44775 , -0) 
 At (1.175 , 0.775 , 0.05 )  Deviation = 0.0227396 Body force = (-0.166236 , -7.30916 , -0) 
 At (1.225 , 0.775 , 0.05 )  Deviation = 0.0196518 Body force = (-0.124276 , -6.32309 , -0) 
 At (1.275 , 0.775 , 0.05 )  Deviation = 0.0169833 Body force = (-0.0928967 , -5.46935 , -0) 
 At (1.325 , 0.775 , 0.05 )  Deviation = 0.0146772 Body force = (-0.0694334 , -4.73035 , -0) 
 At (1.375 , 0.775 , 0.05 )  Deviation = 0.0126843 Body force = (-0.0518916 , -4.09079 , -0) 
 At (1.425 , 0.775 , 0.05 )  Deviation = 0.010962 Body force = (-0.0387788 , -3.53742 , -0) 
 At (1.475 , 0.775 , 0.05 )  Deviation = 0.00947336 Body force = (-0.0289759 , -3.05858 , -0) 
 At (1.525 , 0.775 , 0.05 )  Deviation = 0.000349944 Body force = (0 , 0 , 0) 
 At (1.575 , 0.775 , 0.05 )  Deviation = 0.000349944 Body force = (0 , 0 , 0) 
 At (1.625 , 0.775 , 0.05 )  Deviation = 0.000349944 Body force = (0 , 0 , 0) 
 At (1.675 , 0.775 , 0.05 )  Deviation = 0.000349944 Body force = (0 , 0 , 0) 
 At (1.725 , 0.775 , 0.05 )  Deviation = 0.000349944 Body force = (0 , 0 , 0) 
 At (1.775 , 0.775 , 0.05 )  Deviation = 0.000349944 Body force = (0 , 0 , 0) 
 At (1.825 , 0.775 , 0.05 )  Deviation = 0.000349944 Body force = (0 , 0 , 0) 
 At (1.875 , 0.775 , 0.05 )  Deviation = 0.000349944 Body force = (0 , 0 , 0) 
 At (1.925 , 0.775 , 0.05 )  Deviation = 0.000345936 Body force = (0 , 0 , 0) 
 At (1.975 , 0.775 , 0.05 )  Deviation = 0.000349944 Body force = (0 , 0 , 0) 
 At (0.025 , 0.825 , 0.05 )  Deviation = 0.000338589 Body force = (0 , 0 , 0) 
 At (0.075 , 0.825 , 0.05 )  Deviation = 0.000341928 Body force = (0 , 0 , 0) 
 At (0.125 , 0.825 , 0.05 )  Deviation = 0.000332453 Body force = (0 , 0 , 0) 
 At (0.175 , 0.825 , 0.05 )  Deviation = 0.00033525 Body force = (0 , 0 , 0) 
 At (0.225 , 0.825 , 0.05 )  Deviation = 0.000327304 Body force = (0 , 0 , 0) 
 At (0.275 , 0.825 , 0.05 )  Deviation = 0.000329657 Body force = (0 , 0 , 0) 
 At (0.325 , 0.825 , 0.05 )  Deviation = 0.000322963 Body force = (0 , 0 , 0) 
 At (0.375 , 0.825 , 0.05 )  Deviation = 0.000324951 Body force = (0 , 0 , 0) 
 At (0.425 , 0.825 , 0.05 )  Deviation = 0.000319292 Body force = (0 , 0 , 0) 
 At (0.475 , 0.825 , 0.05 )  Deviation = 0.000320976 Body force = (0 , 0 , 0) 
 At (0.525 , 0.825 , 0.05 )  Deviation = 0.151076 Body force = (-7.13897 , -46.8941 , -0) 
 At (0.575 , 0.825 , 0.05 )  Deviation = 0.130716 Body force = (-5.36059 , -40.7757 , -0) 
 At (0.625 , 0.825 , 0.05 )  Deviation = 0.113063 Body force = (-4.02312 , -35.4312 , -0) 
 At (0.675 , 0.825 , 0.05 )  Deviation = 0.0977627 Body force = (-3.01598 , -30.7517 , -0) 
 At (0.725 , 0.825 , 0.05 )  Deviation = 0.0845155 Body force = (-2.25969 , -26.6733 , -0) 
 At (0.775 , 0.825 , 0.05 )  Deviation = 0.0730561 Body force = (-1.69262 , -23.1276 , -0) 
 At (0.825 , 0.825 , 0.05 )  Deviation = 0.0631463 Body force = (-1.26754 , -20.0464 , -0) 
 At (0.875 , 0.825 , 0.05 )  Deviation = 0.0545775 Body force = (-0.948923 , -17.3695 , -0) 
 At (0.925 , 0.825 , 0.05 )  Deviation = 0.0471693 Body force = (-0.710193 , -15.0451 , -0) 
 At (0.975 , 0.825 , 0.05 )  Deviation = 0.0407656 Body force = (-0.531391 , -13.0281 , -0) 
 At (1.025 , 0.825 , 0.05 )  Deviation = 0.0352306 Body force = (-0.39752 , -11.2787 , -0) 
 At (1.075 , 0.825 , 0.05 )  Deviation = 0.0304469 Body force = (-0.297317 , -9.76206 , -0) 
 At (1.125 , 0.825 , 0.05 )  Deviation = 0.0263126 Body force = (-0.222334 , -8.44775 , -0) 
 At (1.175 , 0.825 , 0.05 )  Deviation = 0.0227396 Body force = (-0.166236 , -7.30916 , -0) 
 At (1.225 , 0.825 , 0.05 )  Deviation = 0.0196518 Body force = (-0.124276 , -6.32309 , -0) 
 At (1.275 , 0.825 , 0.05 )  Deviation = 0.0169833 Body force = (-0.0928967 , -5.46935 , -0) 
 At (1.325 , 0.825 , 0.05 )  Deviation = 0.0146772 Body force = (-0.0694334 , -4.73035 , -0) 
 At (1.375 , 0.825 , 0.05 )  Deviation = 0.0126843 Body force = (-0.0518916 , -4.09079 , -0) 
 At (1.425 , 0.825 , 0.05 )  Deviation = 0.010962 Body force = (-0.0387788 , -3.53742 , -0) 
 At (1.475 , 0.825 , 0.05 )  Deviation = 0.00947336 Body force = (-0.0289759 , -3.05858 , -0) 
 At (1.525 , 0.825 , 0.05 )  Deviation = 0.00030167 Body force = (0 , 0 , 0) 
 At (1.575 , 0.825 , 0.05 )  Deviation = 0.000301978 Body force = (0 , 0 , 0) 
 At (1.625 , 0.825 , 0.05 )  Deviation = 0.000301098 Body force = (0 , 0 , 0) 
 At (1.675 , 0.825 , 0.05 )  Deviation = 0.000301363 Body force = (0 , 0 , 0) 
 At (1.725 , 0.825 , 0.05 )  Deviation = 0.000300604 Body force = (0 , 0 , 0) 
 At (1.775 , 0.825 , 0.05 )  Deviation = 0.000300833 Body force = (0 , 0 , 0) 
 At (1.825 , 0.825 , 0.05 )  Deviation = 0.000300179 Body force = (0 , 0 , 0) 
 At (1.875 , 0.825 , 0.05 )  Deviation = 0.000300376 Body force = (0 , 0 , 0) 
 At (1.925 , 0.825 , 0.05 )  Deviation = 0.000299982 Body force = (0 , 0 , 0) 
 At (1.975 , 0.825 , 0.05 )  Deviation = 0.000299982 Body force = (0 , 0 , 0) 
 At (0.025 , 0.875 , 0.05 )  Deviation = 0.000299982 Body force = (0 , 0 , 0) 
 At (0.075 , 0.875 , 0.05 )  Deviation = 0.000299982 Body force = (0 , 0 , 0) 
 At (0.125 , 0.875 , 0.05 )  Deviation = 0.000299982 Body force = (0 , 0 , 0) 
 At (0.175 , 0.875 , 0.05 )  Deviation = 0.000299982 Body force = (0 , 0 , 0) 
 At (0.225 , 0.875 , 0.05 )  Deviation = 0.000299982 Body force = (0 , 0 , 0) 
 At (0.275 , 0.875 , 0.05 )  Deviation = 0.000299982 Body force = (0 , 0 , 0) 
 At (0.325 , 0.875 , 0.05 )  Deviation = 0.000299982 Body force = (0 , 0 , 0) 
 At (0.375 , 0.875 , 0.05 )  Deviation = 0.000299982 Body force = (0 , 0 , 0) 
 At (0.425 , 0.875 , 0.05 )  Deviation = 0.000299982 Body force = (0 , 0 , 0) 
 At (0.475 , 0.875 , 0.05 )  Deviation = 0.000299982 Body force = (0 , 0 , 0) 
 At (0.525 , 0.875 , 0.05 )  Deviation = 0.151076 Body force = (-7.13897 , -46.8941 , -0) 
 At (0.575 , 0.875 , 0.05 )  Deviation = 0.130716 Body force = (-5.36059 , -40.7757 , -0) 
 At (0.625 , 0.875 , 0.05 )  Deviation = 0.113063 Body force = (-4.02312 , -35.4312 , -0) 
 At (0.675 , 0.875 , 0.05 )  Deviation = 0.0977627 Body force = (-3.01598 , -30.7517 , -0) 
 At (0.725 , 0.875 , 0.05 )  Deviation = 0.0845155 Body force = (-2.25969 , -26.6733 , -0) 
 At (0.775 , 0.875 , 0.05 )  Deviation = 0.0730561 Body force = (-1.69262 , -23.1276 , -0) 
 At (0.825 , 0.875 , 0.05 )  Deviation = 0.0631463 Body force = (-1.26754 , -20.0464 , -0) 
 At (0.875 , 0.875 , 0.05 )  Deviation = 0.0545775 Body force = (-0.948923 , -17.3695 , -0) 
 At (0.925 , 0.875 , 0.05 )  Deviation = 0.0471693 Body force = (-0.710193 , -15.0451 , -0) 
 At (0.975 , 0.875 , 0.05 )  Deviation = 0.0407656 Body force = (-0.531391 , -13.0281 , -0) 
 At (1.025 , 0.875 , 0.05 )  Deviation = 0.0352306 Body force = (-0.39752 , -11.2787 , -0) 
 At (1.075 , 0.875 , 0.05 )  Deviation = 0.0304469 Body force = (-0.297317 , -9.76206 , -0) 
 At (1.125 , 0.875 , 0.05 )  Deviation = 0.0263126 Body force = (-0.222334 , -8.44775 , -0) 
 At (1.175 , 0.875 , 0.05 )  Deviation = 0.0227396 Body force = (-0.166236 , -7.30916 , -0) 
 At (1.225 , 0.875 , 0.05 )  Deviation = 0.0196518 Body force = (-0.124276 , -6.32309 , -0) 
 At (1.275 , 0.875 , 0.05 )  Deviation = 0.0169833 Body force = (-0.0928967 , -5.46935 , -0) 
 At (1.325 , 0.875 , 0.05 )  Deviation = 0.0146772 Body force = (-0.0694334 , -4.73035 , -0) 
 At (1.375 , 0.875 , 0.05 )  Deviation = 0.0126843 Body force = (-0.0518916 , -4.09079 , -0) 
 At (1.425 , 0.875 , 0.05 )  Deviation = 0.010962 Body force = (-0.0387788 , -3.53742 , -0) 
 At (1.475 , 0.875 , 0.05 )  Deviation = 0.00947336 Body force = (-0.0289759 , -3.05858 , -0) 
 At (1.525 , 0.875 , 0.05 )  Deviation = 0.000332453 Body force = (0 , 0 , 0) 
 At (1.575 , 0.875 , 0.05 )  Deviation = 0.000327304 Body force = (0 , 0 , 0) 
 At (1.625 , 0.875 , 0.05 )  Deviation = 0.000322963 Body force = (0 , 0 , 0) 
 At (1.675 , 0.875 , 0.05 )  Deviation = 0.000319292 Body force = (0 , 0 , 0) 
 At (1.725 , 0.875 , 0.05 )  Deviation = 0.000316177 Body force = (0 , 0 , 0) 
 At (1.775 , 0.875 , 0.05 )  Deviation = 0.000313526 Body force = (0 , 0 , 0) 
 At (1.825 , 0.875 , 0.05 )  Deviation = 0.000311265 Body force = (0 , 0 , 0) 
 At (1.875 , 0.875 , 0.05 )  Deviation = 0.000309333 Body force = (0 , 0 , 0) 
 At (1.925 , 0.875 , 0.05 )  Deviation = 0.00030768 Body force = (0 , 0 , 0) 
 At (1.975 , 0.875 , 0.05 )  Deviation = 0.000306264 Body force = (0 , 0 , 0) 
 At (0.025 , 0.925 , 0.05 )  Deviation = 0.000305048 Body force = (0 , 0 , 0) 
 At (0.075 , 0.925 , 0.05 )  Deviation = 0.000304004 Body force = (0 , 0 , 0) 
 At (0.125 , 0.925 , 0.05 )  Deviation = 0.000303107 Body force = (0 , 0 , 0) 
 At (0.175 , 0.925 , 0.05 )  Deviation = 0.000302335 Body force = (0 , 0 , 0) 
 At (0.225 , 0.925 , 0.05 )  Deviation = 0.00030167 Body force = (0 , 0 , 0) 
 At (0.275 , 0.925 , 0.05 )  Deviation = 0.000301098 Body force = (0 , 0 , 0) 
 At (0.325 , 0.925 , 0.05 )  Deviation = 0.000300604 Body force = (0 , 0 , 0) 
 At (0.375 , 0.925 , 0.05 )  Deviation = 0.000300179 Body force = (0 , 0 , 0) 
 At (0.425 , 0.925 , 0.05 )  Deviation = 0.000299982 Body force = (0 , 0 , 0) 
 At (0.475 , 0.925 , 0.05 )  Deviation = 0.000299982 Body force = (0 , 0 , 0) 
 At (0.525 , 0.925 , 0.05 )  Deviation = 0.151076 Body force = (-7.13897 , -46.8941 , -0) 
 At (0.575 , 0.925 , 0.05 )  Deviation = 0.130716 Body force = (-5.36059 , -40.7757 , -0) 
 At (0.625 , 0.925 , 0.05 )  Deviation = 0.113063 Body force = (-4.02312 , -35.4312 , -0) 
 At (0.675 , 0.925 , 0.05 )  Deviation = 0.0977627 Body force = (-3.01598 , -30.7517 , -0) 
 At (0.725 , 0.925 , 0.05 )  Deviation = 0.0845155 Body force = (-2.25969 , -26.6733 , -0) 
 At (0.775 , 0.925 , 0.05 )  Deviation = 0.0730561 Body force = (-1.69262 , -23.1276 , -0) 
 At (0.825 , 0.925 , 0.05 )  Deviation = 0.0631463 Body force = (-1.26754 , -20.0464 , -0) 
 At (0.875 , 0.925 , 0.05 )  Deviation = 0.0545775 Body force = (-0.948923 , -17.3695 , -0) 
 At (0.925 , 0.925 , 0.05 )  Deviation = 0.0471693 Body force = (-0.710193 , -15.0451 , -0) 
 At (0.975 , 0.925 , 0.05 )  Deviation = 0.0407656 Body force = (-0.531391 , -13.0281 , -0) 
 At (1.025 , 0.925 , 0.05 )  Deviation = 0.0352306 Body force = (-0.39752 , -11.2787 , -0) 
 At (1.075 , 0.925 , 0.05 )  Deviation = 0.0304469 Body force = (-0.297317 , -9.76206 , -0) 
 At (1.125 , 0.925 , 0.05 )  Deviation = 0.0263126 Body force = (-0.222334 , -8.44775 , -0) 
 At (1.175 , 0.925 , 0.05 )  Deviation = 0.0227396 Body force = (-0.166236 , -7.30916 , -0) 
 At (1.225 , 0.925 , 0.05 )  Deviation = 0.0196518 Body force = (-0.124276 , -6.32309 , -0) 
 At (1.275 , 0.925 , 0.05 )  Deviation = 0.0169833 Body force = (-0.0928967 , -5.46935 , -0) 
 At (1.325 , 0.925 , 0.05 )  Deviation = 0.0146772 Body force = (-0.0694333 , -4.73035 , -0) 
 At (1.375 , 0.925 , 0.05 )  Deviation = 0.0126843 Body force = (-0.0518916 , -4.09079 , -0) 
 At (1.425 , 0.925 , 0.05 )  Deviation = 0.010962 Body force = (-0.0387788 , -3.53742 , -0) 
 At (1.475 , 0.925 , 0.05 )  Deviation = 0.00947336 Body force = (-0.0289759 , -3.05858 , -0) 
 At (1.525 , 0.925 , 0.05 )  Deviation = 0 Body force = (0 , 0 , 0) 
 At (1.575 , 0.925 , 0.05 )  Deviation = -0 Body force = (0 , 0 , 0) 
 At (1.625 , 0.925 , 0.05 )  Deviation = -0 Body force = (0 , 0 , 0) 
 At (1.675 , 0.925 , 0.05 )  Deviation = -9.21475e-24 Body force = (0 , 0 , 0) 
 At (1.725 , 0.925 , 0.05 )  Deviation = 0 Body force = (0 , 0 , 0) 
 At (1.775 , 0.925 , 0.05 )  Deviation = -1.36471e-22 Body force = (0 , 0 , 0) 
 At (1.825 , 0.925 , 0.05 )  Deviation = 0 Body force = (0 , 0 , 0) 
 At (1.875 , 0.925 , 0.05 )  Deviation = 0 Body force = (0 , 0 , 0) 
 At (1.925 , 0.925 , 0.05 )  Deviation = 7.42281e-28 Body force = (0 , 0 , 0) 
 At (1.975 , 0.925 , 0.05 )  Deviation = -0 Body force = (0 , 0 , 0) 
 At (0.025 , 0.975 , 0.05 )  Deviation = -1.86433e-27 Body force = (0 , 0 , 0) 
 At (0.075 , 0.975 , 0.05 )  Deviation = -1.79907e-19 Body force = (0 , 0 , 0) 
 At (0.125 , 0.975 , 0.05 )  Deviation = 1.10697e-27 Body force = (0 , 0 , 0) 
 At (0.175 , 0.975 , 0.05 )  Deviation = 2.25346e-19 Body force = (0 , 0 , 0) 
 At (0.225 , 0.975 , 0.05 )  Deviation = -0 Body force = (0 , 0 , 0) 
 At (0.275 , 0.975 , 0.05 )  Deviation = -0 Body force = (0 , 0 , 0) 
 At (0.325 , 0.975 , 0.05 )  Deviation = 0 Body force = (0 , 0 , 0) 
 At (0.375 , 0.975 , 0.05 )  Deviation = 0 Body force = (0 , 0 , 0) 
 At (0.425 , 0.975 , 0.05 )  Deviation = 1.33176e-27 Body force = (0 , 0 , 0) 
 At (0.475 , 0.975 , 0.05 )  Deviation = -1.54096e-19 Body force = (0 , 0 , 0) 
 At (0.525 , 0.975 , 0.05 )  Deviation = 0.151076 Body force = (-7.13897 , -46.8941 , -0) 
 At (0.575 , 0.975 , 0.05 )  Deviation = 0.130716 Body force = (-5.36059 , -40.7757 , -0) 
 At (0.625 , 0.975 , 0.05 )  Deviation = 0.113063 Body force = (-4.02312 , -35.4312 , -0) 
 At (0.675 , 0.975 , 0.05 )  Deviation = 0.0977627 Body force = (-3.01598 , -30.7517 , -0) 
 At (0.725 , 0.975 , 0.05 )  Deviation = 0.0845155 Body force = (-2.25969 , -26.6733 , -0) 
 At (0.775 , 0.975 , 0.05 )  Deviation = 0.0730561 Body force = (-1.69262 , -23.1276 , -0) 
 At (0.825 , 0.975 , 0.05 )  Deviation = 0.0631463 Body force = (-1.26754 , -20.0464 , -0) 
 At (0.875 , 0.975 , 0.05 )  Deviation = 0.0545775 Body force = (-0.948923 , -17.3695 , -0) 
 At (0.925 , 0.975 , 0.05 )  Deviation = 0.0471693 Body force = (-0.710193 , -15.0451 , -0) 
 At (0.975 , 0.975 , 0.05 )  Deviation = 0.0407656 Body force = (-0.531391 , -13.0281 , -0) 
 At (1.025 , 0.975 , 0.05 )  Deviation = 0.0352306 Body force = (-0.39752 , -11.2787 , -0) 
 At (1.075 , 0.975 , 0.05 )  Deviation = 0.0304469 Body force = (-0.297317 , -9.76206 , -0) 
 At (1.125 , 0.975 , 0.05 )  Deviation = 0.0263126 Body force = (-0.222334 , -8.44775 , -0) 
 At (1.175 , 0.975 , 0.05 )  Deviation = 0.0227396 Body force = (-0.166236 , -7.30916 , -0) 
 At (1.225 , 0.975 , 0.05 )  Deviation = 0.0196518 Body force = (-0.124276 , -6.32309 , -0) 
 At (1.275 , 0.975 , 0.05 )  Deviation = 0.0169833 Body force = (-0.0928967 , -5.46935 , -0) 
 At (1.325 , 0.975 , 0.05 )  Deviation = 0.0146772 Body force = (-0.0694333 , -4.73035 , -0) 
 At (1.375 , 0.975 , 0.05 )  Deviation = 0.0126843 Body force = (-0.0518916 , -4.09079 , -0) 
 At (1.425 , 0.975 , 0.05 )  Deviation = 0.010962 Body force = (-0.0387788 , -3.53742 , -0) 
 At (1.475 , 0.975 , 0.05 )  Deviation = 0.00947336 Body force = (-0.0289759 , -3.05858 , -0) 
 At (1.525 , 0.975 , 0.05 )  Deviation = -2.92658e-27 Body force = (0 , 0 , 0) 
 At (1.575 , 0.975 , 0.05 )  Deviation = 5.85034e-27 Body force = (0 , 0 , 0) 
 At (1.625 , 0.975 , 0.05 )  Deviation = 2.6415e-27 Body force = (0 , 0 , 0) 
 At (1.675 , 0.975 , 0.05 )  Deviation = 0 Body force = (0 , 0 , 0) 
 At (1.725 , 0.975 , 0.05 )  Deviation = -4.34542e-27 Body force = (0 , 0 , 0) 
 At (1.775 , 0.975 , 0.05 )  Deviation = 5.52109e-27 Body force = (0 , 0 , 0) 
 At (1.825 , 0.975 , 0.05 )  Deviation = 1.67386e-27 Body force = (0 , 0 , 0) 
 At (1.875 , 0.975 , 0.05 )  Deviation = 0 Body force = (0 , 0 , 0) 
 At (1.925 , 0.975 , 0.05 )  Deviation = -1.36751e-27 Body force = (0 , 0 , 0) 
 At (1.975 , 0.975 , 0.05 )  Deviation = 3.26689e-21 Body force = (0 , 0 , 0) 
**codeSetValue**
smoothSolver:  Solving for Ux, Initial residual = 0.000503604, Final residual = 2.32526e-05, No Iterations 2
smoothSolver:  Solving for Uy, Initial residual = 3.16321e-08, Final residual = 6.19051e-09, No Iterations 1
**codeCorrect**
GAMG:  Solving for p, Initial residual = 3.22835e-05, Final residual = 2.31409e-06, No Iterations 2
time step continuity errors : sum local = 2.38752e-07, global = -1.49241e-07, cumulative = 0.00023011
**codeCorrect**
ExecutionTime = 15.81 s  ClockTime = 16 s

Time = 71

**codeSetValue**
smoothSolver:  Solving for Ux, Initial residual = 0.000252287, Final residual = 1.21851e-05, No Iterations 2
smoothSolver:  Solving for Uy, Initial residual = 2.72865e-08, Final residual = 4.61931e-09, No Iterations 1
**codeCorrect**
GAMG:  Solving for p, Initial residual = 2.8258e-05, Final residual = 2.05934e-06, No Iterations 2
time step continuity errors : sum local = 2.12497e-07, global = -1.28462e-07, cumulative = 0.000229982
**codeCorrect**
ExecutionTime = 15.81 s  ClockTime = 16 s

Time = 72

**codeSetValue**
smoothSolver:  Solving for Ux, Initial residual = 0.000211579, Final residual = 8.42261e-06, No Iterations 2
smoothSolver:  Solving for Uy, Initial residual = 3.7064e-08, Final residual = 7.20583e-09, No Iterations 1
**codeCorrect**
GAMG:  Solving for p, Initial residual = 2.07138e-05, Final residual = 1.26988e-06, No Iterations 2
time step continuity errors : sum local = 1.31063e-07, global = -5.60914e-08, cumulative = 0.000229926
**codeCorrect**
ExecutionTime = 15.83 s  ClockTime = 16 s

Time = 73

**codeSetValue**
smoothSolver:  Solving for Ux, Initial residual = 0.000270279, Final residual = 1.30022e-05, No Iterations 2
smoothSolver:  Solving for Uy, Initial residual = 2.52523e-08, Final residual = 5.10349e-09, No Iterations 1
**codeCorrect**
GAMG:  Solving for p, Initial residual = 1.44087e-05, Final residual = 9.67081e-07, No Iterations 2
time step continuity errors : sum local = 9.98203e-08, global = 1.63536e-08, cumulative = 0.000229942
**codeCorrect**
ExecutionTime = 15.83 s  ClockTime = 16 s

Time = 74

**codeSetValue**
smoothSolver:  Solving for Ux, Initial residual = 0.000175371, Final residual = 8.73101e-06, No Iterations 2
smoothSolver:  Solving for Uy, Initial residual = 1.23101e-08, Final residual = 1.92903e-09, No Iterations 1
**codeCorrect**
GAMG:  Solving for p, Initial residual = 1.38301e-05, Final residual = 8.96275e-07, No Iterations 2
time step continuity errors : sum local = 9.25071e-08, global = 1.58593e-08, cumulative = 0.000229958
**codeCorrect**
ExecutionTime = 15.83 s  ClockTime = 16 s

Time = 75

**codeSetValue**
smoothSolver:  Solving for Ux, Initial residual = 0.000111117, Final residual = 4.4864e-06, No Iterations 2
smoothSolver:  Solving for Uy, Initial residual = 1.91753e-08, Final residual = 3.58435e-09, No Iterations 1
**codeCorrect**
GAMG:  Solving for p, Initial residual = 1.22738e-05, Final residual = 7.69715e-07, No Iterations 2
time step continuity errors : sum local = 7.94353e-08, global = 8.14448e-09, cumulative = 0.000229966
**codeCorrect**
ExecutionTime = 15.85 s  ClockTime = 16 s

Time = 76

**codeSetValue**
smoothSolver:  Solving for Ux, Initial residual = 0.000145853, Final residual = 7.2166e-06, No Iterations 2
smoothSolver:  Solving for Uy, Initial residual = 1.51082e-08, Final residual = 2.9952e-09, No Iterations 1
**codeCorrect**
GAMG:  Solving for p, Initial residual = 1.02919e-05, Final residual = 5.61968e-07, No Iterations 2
time step continuity errors : sum local = 5.7992e-08, global = -1.32733e-08, cumulative = 0.000229953
**codeCorrect**
ExecutionTime = 15.85 s  ClockTime = 16 s

Time = 77

**codeSetValue**
smoothSolver:  Solving for Ux, Initial residual = 0.000110515, Final residual = 5.93054e-06, No Iterations 2
smoothSolver:  Solving for Uy, Initial residual = 6.97759e-09, Final residual = 6.97759e-09, No Iterations 0
**codeCorrect**
GAMG:  Solving for p, Initial residual = 9.44741e-06, Final residual = 6.79892e-07, No Iterations 2
time step continuity errors : sum local = 7.01626e-08, global = 2.0602e-10, cumulative = 0.000229953
**codeCorrect**
ExecutionTime = 15.85 s  ClockTime = 16 s

Time = 78

**codeSetValue**
smoothSolver:  Solving for Ux, Initial residual = 6.79178e-05, Final residual = 2.51745e-06, No Iterations 2
smoothSolver:  Solving for Uy, Initial residual = 1.19931e-08, Final residual = 2.18306e-09, No Iterations 1
**codeCorrect**
GAMG:  Solving for p, Initial residual = 8.21047e-06, Final residual = 6.55014e-07, No Iterations 2
time step continuity errors : sum local = 6.76e-08, global = 7.82913e-09, cumulative = 0.000229961
**codeCorrect**
ExecutionTime = 15.85 s  ClockTime = 16 s


SIMPLE solution converged in 78 iterations

End

